/*---------------------------------------------------------------------------*\
| =========                 |                                                 |
| \\      /  F ield         | OpenFOAM: The Open Source CFD Toolbox           |
|  \\    /   O peration     | Version:  5.x                                   |
|   \\  /    A nd           | Web:      www.OpenFOAM.org                      |
|    \\/     M anipulation  |                                                 |
\*---------------------------------------------------------------------------*/
Build  : 5.x-68e8507efb72
Exec   : simpleFoam
Date   : Feb 03 2022
Time   : 08:48:58
Host   : "Desktop-PC"
PID    : 15592
I/O    : uncollated
Case   : /home/emilio/code/flow-separation-prediction/openfoam/run/Airfold2D_full
nProcs : 1
sigFpe : Enabling floating point exception trapping (FOAM_SIGFPE).
fileModificationChecking : Monitoring run-time modified files using timeStampMaster (fileModificationSkew 10)
allowSystemOperations : Allowing user-supplied system call operations

// * * * * * * * * * * * * * * * * * * * * * * * * * * * * * * * * * * * * * //
Create time

Create mesh for time = 0


SIMPLE: convergence criteria
    field p	 tolerance 1e-05
    field U	 tolerance 1e-05
    field nuTilda	 tolerance 1e-05

Reading field p

Reading field U

Reading/calculating face flux field phi

Selecting incompressible transport model Newtonian
Selecting turbulence model type RAS
Selecting RAS turbulence model SpalartAllmaras
Selecting patchDistMethod meshWave
RAS
{
    RASModel        SpalartAllmaras;
    turbulence      on;
    printCoeffs     on;
    sigmaNut        0.66666;
    kappa           0.41;
    Cb1             0.1355;
    Cb2             0.622;
    Cw2             0.3;
    Cw3             2;
    Cv1             7.1;
    Cs              0.3;
}

No MRF models present

No finite volume options present


Starting time loop

Time = 1

smoothSolver:  Solving for Ux, Initial residual = 1, Final residual = 0.031623, No Iterations 2
smoothSolver:  Solving for Uy, Initial residual = 1, Final residual = 0.0676941, No Iterations 2
GAMG:  Solving for p, Initial residual = 1, Final residual = 0.0562312, No Iterations 8
time step continuity errors : sum local = 0.00127176, global = 3.22981e-16, cumulative = 3.22981e-16
smoothSolver:  Solving for nuTilda, Initial residual = 1, Final residual = 0.017547, No Iterations 2
ExecutionTime = 0.1 s  ClockTime = 0 s

Time = 2

smoothSolver:  Solving for Ux, Initial residual = 0.548921, Final residual = 0.0106567, No Iterations 4
smoothSolver:  Solving for Uy, Initial residual = 0.428123, Final residual = 0.013268, No Iterations 4
GAMG:  Solving for p, Initial residual = 0.858952, Final residual = 0.0741051, No Iterations 3
time step continuity errors : sum local = 0.00467301, global = 7.55335e-16, cumulative = 1.07832e-15
smoothSolver:  Solving for nuTilda, Initial residual = 0.111439, Final residual = 0.00565828, No Iterations 2
ExecutionTime = 0.12 s  ClockTime = 0 s

Time = 3

smoothSolver:  Solving for Ux, Initial residual = 0.177178, Final residual = 0.0160402, No Iterations 2
smoothSolver:  Solving for Uy, Initial residual = 0.0949031, Final residual = 0.0022643, No Iterations 4
GAMG:  Solving for p, Initial residual = 0.873165, Final residual = 0.0807557, No Iterations 4
time step continuity errors : sum local = 0.00851551, global = 4.35623e-16, cumulative = 1.51394e-15
smoothSolver:  Solving for nuTilda, Initial residual = 0.0325838, Final residual = 0.00318474, No Iterations 2
ExecutionTime = 0.14 s  ClockTime = 0 s

Time = 4

smoothSolver:  Solving for Ux, Initial residual = 0.0518957, Final residual = 0.00441395, No Iterations 2
smoothSolver:  Solving for Uy, Initial residual = 0.0262256, Final residual = 0.000597447, No Iterations 4
GAMG:  Solving for p, Initial residual = 0.866238, Final residual = 0.0675666, No Iterations 4
time step continuity errors : sum local = 0.00606662, global = -2.15124e-16, cumulative = 1.29881e-15
smoothSolver:  Solving for nuTilda, Initial residual = 0.0174289, Final residual = 0.000337554, No Iterations 4
ExecutionTime = 0.15 s  ClockTime = 0 s

Time = 5

smoothSolver:  Solving for Ux, Initial residual = 0.111796, Final residual = 0.0105581, No Iterations 2
smoothSolver:  Solving for Uy, Initial residual = 0.0655979, Final residual = 0.00144574, No Iterations 4
GAMG:  Solving for p, Initial residual = 0.798946, Final residual = 0.0545238, No Iterations 4
time step continuity errors : sum local = 0.00494294, global = -6.69447e-16, cumulative = 6.29368e-16
smoothSolver:  Solving for nuTilda, Initial residual = 0.0126488, Final residual = 0.00025463, No Iterations 4
ExecutionTime = 0.17 s  ClockTime = 0 s

Time = 6

smoothSolver:  Solving for Ux, Initial residual = 0.18354, Final residual = 0.0141053, No Iterations 2
smoothSolver:  Solving for Uy, Initial residual = 0.123875, Final residual = 0.00214372, No Iterations 4
GAMG:  Solving for p, Initial residual = 0.832989, Final residual = 0.074355, No Iterations 4
time step continuity errors : sum local = 0.00654533, global = -3.17402e-16, cumulative = 3.11966e-16
smoothSolver:  Solving for nuTilda, Initial residual = 0.0102722, Final residual = 0.000195716, No Iterations 4
ExecutionTime = 0.19 s  ClockTime = 0 s

Time = 7

smoothSolver:  Solving for Ux, Initial residual = 0.120886, Final residual = 0.00842033, No Iterations 2
smoothSolver:  Solving for Uy, Initial residual = 0.114624, Final residual = 0.00201861, No Iterations 4
GAMG:  Solving for p, Initial residual = 0.818646, Final residual = 0.0638332, No Iterations 4
time step continuity errors : sum local = 0.00450075, global = -7.86483e-16, cumulative = -4.74517e-16
smoothSolver:  Solving for nuTilda, Initial residual = 0.0084675, Final residual = 0.000151065, No Iterations 4
bounding nuTilda, min: -0.00231668 max: 0.140969 average: 0.129615
ExecutionTime = 0.21 s  ClockTime = 0 s

Time = 8

smoothSolver:  Solving for Ux, Initial residual = 0.101679, Final residual = 0.00710942, No Iterations 2
smoothSolver:  Solving for Uy, Initial residual = 0.0723214, Final residual = 0.00110442, No Iterations 4
GAMG:  Solving for p, Initial residual = 0.872973, Final residual = 0.0540877, No Iterations 4
time step continuity errors : sum local = 0.00371365, global = 4.84517e-17, cumulative = -4.26066e-16
smoothSolver:  Solving for nuTilda, Initial residual = 0.0069134, Final residual = 0.000117901, No Iterations 4
ExecutionTime = 0.23 s  ClockTime = 0 s

Time = 9

smoothSolver:  Solving for Ux, Initial residual = 0.107904, Final residual = 0.00727923, No Iterations 2
smoothSolver:  Solving for Uy, Initial residual = 0.0496785, Final residual = 0.00471984, No Iterations 2
GAMG:  Solving for p, Initial residual = 0.811296, Final residual = 0.055009, No Iterations 4
time step continuity errors : sum local = 0.0035819, global = 6.2625e-16, cumulative = 2.00185e-16
smoothSolver:  Solving for nuTilda, Initial residual = 0.00575662, Final residual = 9.45253e-05, No Iterations 4
bounding nuTilda, min: -0.000192705 max: 0.141552 average: 0.128541
ExecutionTime = 0.24 s  ClockTime = 0 s

Time = 10

smoothSolver:  Solving for Ux, Initial residual = 0.0638038, Final residual = 0.00419136, No Iterations 2
smoothSolver:  Solving for Uy, Initial residual = 0.0298036, Final residual = 0.00270599, No Iterations 2
GAMG:  Solving for p, Initial residual = 0.787515, Final residual = 0.04772, No Iterations 4
time step continuity errors : sum local = 0.0028554, global = -1.50533e-16, cumulative = 4.96519e-17
smoothSolver:  Solving for nuTilda, Initial residual = 0.00511091, Final residual = 8.16463e-05, No Iterations 4
ExecutionTime = 0.26 s  ClockTime = 0 s

Time = 11

smoothSolver:  Solving for Ux, Initial residual = 0.0356558, Final residual = 0.00255536, No Iterations 2
smoothSolver:  Solving for Uy, Initial residual = 0.0209968, Final residual = 0.00200401, No Iterations 2
GAMG:  Solving for p, Initial residual = 0.795134, Final residual = 0.0350914, No Iterations 4
time step continuity errors : sum local = 0.00200488, global = -9.51173e-17, cumulative = -4.54654e-17
smoothSolver:  Solving for nuTilda, Initial residual = 0.00481815, Final residual = 7.48124e-05, No Iterations 4
bounding nuTilda, min: -0.00146675 max: 0.142299 average: 0.127735
ExecutionTime = 0.28 s  ClockTime = 0 s

Time = 12

smoothSolver:  Solving for Ux, Initial residual = 0.0453624, Final residual = 0.00317085, No Iterations 2
smoothSolver:  Solving for Uy, Initial residual = 0.0333798, Final residual = 0.000528593, No Iterations 4
GAMG:  Solving for p, Initial residual = 0.762506, Final residual = 0.0495414, No Iterations 4
time step continuity errors : sum local = 0.00261289, global = 4.40112e-16, cumulative = 3.94647e-16
smoothSolver:  Solving for nuTilda, Initial residual = 0.00464091, Final residual = 6.97604e-05, No Iterations 4
bounding nuTilda, min: -0.00029181 max: 0.142619 average: 0.127375
ExecutionTime = 0.3 s  ClockTime = 0 s

Time = 13

smoothSolver:  Solving for Ux, Initial residual = 0.0387333, Final residual = 0.00245611, No Iterations 2
smoothSolver:  Solving for Uy, Initial residual = 0.0296663, Final residual = 0.000452399, No Iterations 4
GAMG:  Solving for p, Initial residual = 0.763227, Final residual = 0.0437266, No Iterations 4
time step continuity errors : sum local = 0.00201395, global = -3.85663e-16, cumulative = 8.9833e-18
smoothSolver:  Solving for nuTilda, Initial residual = 0.00440503, Final residual = 0.000439993, No Iterations 2
bounding nuTilda, min: -0.000123511 max: 0.142949 average: 0.12708
ExecutionTime = 0.32 s  ClockTime = 0 s

Time = 14

smoothSolver:  Solving for Ux, Initial residual = 0.0307362, Final residual = 0.00188084, No Iterations 2
smoothSolver:  Solving for Uy, Initial residual = 0.0190921, Final residual = 0.00137712, No Iterations 2
GAMG:  Solving for p, Initial residual = 0.771052, Final residual = 0.0285855, No Iterations 4
time step continuity errors : sum local = 0.00118482, global = -1.07409e-15, cumulative = -1.06511e-15
smoothSolver:  Solving for nuTilda, Initial residual = 0.00419084, Final residual = 0.000411651, No Iterations 2
ExecutionTime = 0.34 s  ClockTime = 0 s

Time = 15

smoothSolver:  Solving for Ux, Initial residual = 0.0334897, Final residual = 0.00213739, No Iterations 2
smoothSolver:  Solving for Uy, Initial residual = 0.0226464, Final residual = 0.00183785, No Iterations 2
GAMG:  Solving for p, Initial residual = 0.754998, Final residual = 0.074195, No Iterations 3
time step continuity errors : sum local = 0.00284579, global = 1.60925e-16, cumulative = -9.0418e-16
smoothSolver:  Solving for nuTilda, Initial residual = 0.00398376, Final residual = 0.000384561, No Iterations 2
bounding nuTilda, min: -0.00106363 max: 0.14372 average: 0.126562
ExecutionTime = 0.35 s  ClockTime = 0 s

Time = 16

smoothSolver:  Solving for Ux, Initial residual = 0.0289212, Final residual = 0.00192207, No Iterations 2
smoothSolver:  Solving for Uy, Initial residual = 0.0185907, Final residual = 0.00146296, No Iterations 2
GAMG:  Solving for p, Initial residual = 0.742327, Final residual = 0.0467636, No Iterations 4
time step continuity errors : sum local = 0.00166249, global = -9.48633e-16, cumulative = -1.85281e-15
smoothSolver:  Solving for nuTilda, Initial residual = 0.00384018, Final residual = 0.000366263, No Iterations 2
bounding nuTilda, min: -0.00258694 max: 0.144125 average: 0.126335
ExecutionTime = 0.37 s  ClockTime = 0 s

Time = 17

smoothSolver:  Solving for Ux, Initial residual = 0.021407, Final residual = 0.00153509, No Iterations 2
smoothSolver:  Solving for Uy, Initial residual = 0.0124557, Final residual = 0.00101801, No Iterations 2
GAMG:  Solving for p, Initial residual = 0.727431, Final residual = 0.0687509, No Iterations 3
time step continuity errors : sum local = 0.00232279, global = 3.87605e-16, cumulative = -1.46521e-15
smoothSolver:  Solving for nuTilda, Initial residual = 0.00375744, Final residual = 0.000355091, No Iterations 2
bounding nuTilda, min: -0.00199915 max: 0.14452 average: 0.126123
ExecutionTime = 0.39 s  ClockTime = 0 s

Time = 18

smoothSolver:  Solving for Ux, Initial residual = 0.01869, Final residual = 0.00135474, No Iterations 2
smoothSolver:  Solving for Uy, Initial residual = 0.0135363, Final residual = 0.000214844, No Iterations 4
GAMG:  Solving for p, Initial residual = 0.691366, Final residual = 0.059521, No Iterations 3
time step continuity errors : sum local = 0.00188872, global = 1.7942e-18, cumulative = -1.46341e-15
smoothSolver:  Solving for nuTilda, Initial residual = 0.00367794, Final residual = 0.000344254, No Iterations 2
bounding nuTilda, min: -0.00149458 max: 0.14497 average: 0.125923
ExecutionTime = 0.41 s  ClockTime = 0 s

Time = 19

smoothSolver:  Solving for Ux, Initial residual = 0.0170442, Final residual = 0.00115985, No Iterations 2
smoothSolver:  Solving for Uy, Initial residual = 0.0136126, Final residual = 0.00132582, No Iterations 2
GAMG:  Solving for p, Initial residual = 0.66002, Final residual = 0.0655312, No Iterations 3
time step continuity errors : sum local = 0.00196643, global = 2.30223e-16, cumulative = -1.23319e-15
smoothSolver:  Solving for nuTilda, Initial residual = 0.00358729, Final residual = 0.000333121, No Iterations 2
bounding nuTilda, min: -0.00153055 max: 0.145408 average: 0.125731
ExecutionTime = 0.42 s  ClockTime = 0 s

Time = 20

smoothSolver:  Solving for Ux, Initial residual = 0.0166528, Final residual = 0.00112915, No Iterations 2
smoothSolver:  Solving for Uy, Initial residual = 0.012049, Final residual = 0.0010057, No Iterations 2
GAMG:  Solving for p, Initial residual = 0.644503, Final residual = 0.0307988, No Iterations 4
time step continuity errors : sum local = 0.000859133, global = 4.49509e-16, cumulative = -7.83682e-16
smoothSolver:  Solving for nuTilda, Initial residual = 0.0034982, Final residual = 0.000323117, No Iterations 2
bounding nuTilda, min: -0.000536565 max: 0.145825 average: 0.125547
ExecutionTime = 0.44 s  ClockTime = 0 s

Time = 21

smoothSolver:  Solving for Ux, Initial residual = 0.01514, Final residual = 0.0010483, No Iterations 2
smoothSolver:  Solving for Uy, Initial residual = 0.0114014, Final residual = 0.000816672, No Iterations 2
GAMG:  Solving for p, Initial residual = 0.616553, Final residual = 0.0463566, No Iterations 3
time step continuity errors : sum local = 0.00123201, global = -4.13773e-16, cumulative = -1.19745e-15
smoothSolver:  Solving for nuTilda, Initial residual = 0.00342832, Final residual = 0.000315858, No Iterations 2
bounding nuTilda, min: -0.00073042 max: 0.146293 average: 0.125369
ExecutionTime = 0.46 s  ClockTime = 0 s

Time = 22

smoothSolver:  Solving for Ux, Initial residual = 0.0136486, Final residual = 0.000966, No Iterations 2
smoothSolver:  Solving for Uy, Initial residual = 0.0109395, Final residual = 0.000816153, No Iterations 2
GAMG:  Solving for p, Initial residual = 0.610186, Final residual = 0.0520253, No Iterations 3
time step continuity errors : sum local = 0.00129203, global = 2.12584e-16, cumulative = -9.8487e-16
smoothSolver:  Solving for nuTilda, Initial residual = 0.00336174, Final residual = 0.000309182, No Iterations 2
bounding nuTilda, min: -0.000613176 max: 0.146777 average: 0.125198
ExecutionTime = 0.47 s  ClockTime = 0 s

Time = 23

smoothSolver:  Solving for Ux, Initial residual = 0.0129739, Final residual = 0.000959486, No Iterations 2
smoothSolver:  Solving for Uy, Initial residual = 0.00969262, Final residual = 0.000800473, No Iterations 2
GAMG:  Solving for p, Initial residual = 0.603523, Final residual = 0.0565273, No Iterations 3
time step continuity errors : sum local = 0.00133911, global = 8.27463e-17, cumulative = -9.02123e-16
smoothSolver:  Solving for nuTilda, Initial residual = 0.00330522, Final residual = 0.000303876, No Iterations 2
bounding nuTilda, min: -0.000222288 max: 0.147235 average: 0.125036
ExecutionTime = 0.49 s  ClockTime = 0 s

Time = 24

smoothSolver:  Solving for Ux, Initial residual = 0.0129947, Final residual = 0.000983996, No Iterations 2
smoothSolver:  Solving for Uy, Initial residual = 0.00893675, Final residual = 0.000788102, No Iterations 2
GAMG:  Solving for p, Initial residual = 0.585746, Final residual = 0.0515428, No Iterations 3
time step continuity errors : sum local = 0.00117885, global = -4.04138e-16, cumulative = -1.30626e-15
smoothSolver:  Solving for nuTilda, Initial residual = 0.00325449, Final residual = 0.000299396, No Iterations 2
ExecutionTime = 0.51 s  ClockTime = 0 s

Time = 25

smoothSolver:  Solving for Ux, Initial residual = 0.0128322, Final residual = 0.000937411, No Iterations 2
smoothSolver:  Solving for Uy, Initial residual = 0.00926984, Final residual = 0.000829282, No Iterations 2
GAMG:  Solving for p, Initial residual = 0.550085, Final residual = 0.0397746, No Iterations 3
time step continuity errors : sum local = 0.000860146, global = -7.12966e-16, cumulative = -2.01923e-15
smoothSolver:  Solving for nuTilda, Initial residual = 0.00320325, Final residual = 0.000295048, No Iterations 2
bounding nuTilda, min: -1.41553e-05 max: 0.148257 average: 0.12473
ExecutionTime = 0.53 s  ClockTime = 0 s

Time = 26

smoothSolver:  Solving for Ux, Initial residual = 0.0123141, Final residual = 0.000875065, No Iterations 2
smoothSolver:  Solving for Uy, Initial residual = 0.00905089, Final residual = 0.000780782, No Iterations 2
GAMG:  Solving for p, Initial residual = 0.526952, Final residual = 0.0472291, No Iterations 3
time step continuity errors : sum local = 0.000984021, global = -3.02639e-16, cumulative = -2.32187e-15
smoothSolver:  Solving for nuTilda, Initial residual = 0.00315827, Final residual = 0.000291951, No Iterations 2
bounding nuTilda, min: -0.000610423 max: 0.148763 average: 0.124581
ExecutionTime = 0.54 s  ClockTime = 0 s

Time = 27

smoothSolver:  Solving for Ux, Initial residual = 0.0114441, Final residual = 0.000831882, No Iterations 2
smoothSolver:  Solving for Uy, Initial residual = 0.00868538, Final residual = 0.000718551, No Iterations 2
GAMG:  Solving for p, Initial residual = 0.51242, Final residual = 0.0472156, No Iterations 3
time step continuity errors : sum local = 0.000956767, global = 4.21113e-16, cumulative = -1.90075e-15
smoothSolver:  Solving for nuTilda, Initial residual = 0.00310959, Final residual = 0.000289013, No Iterations 2
bounding nuTilda, min: -0.000628526 max: 0.14923 average: 0.124436
ExecutionTime = 0.56 s  ClockTime = 0 s

Time = 28

smoothSolver:  Solving for Ux, Initial residual = 0.0103786, Final residual = 0.000750166, No Iterations 2
smoothSolver:  Solving for Uy, Initial residual = 0.00855666, Final residual = 0.000731571, No Iterations 2
GAMG:  Solving for p, Initial residual = 0.499155, Final residual = 0.0415359, No Iterations 3
time step continuity errors : sum local = 0.000823013, global = -3.44962e-16, cumulative = -2.24572e-15
smoothSolver:  Solving for nuTilda, Initial residual = 0.00306685, Final residual = 0.000286317, No Iterations 2
ExecutionTime = 0.58 s  ClockTime = 0 s

Time = 29

smoothSolver:  Solving for Ux, Initial residual = 0.0101527, Final residual = 0.000707036, No Iterations 2
smoothSolver:  Solving for Uy, Initial residual = 0.00817777, Final residual = 0.00072907, No Iterations 2
GAMG:  Solving for p, Initial residual = 0.474959, Final residual = 0.0424485, No Iterations 3
time step continuity errors : sum local = 0.000800689, global = -4.87069e-16, cumulative = -2.73278e-15
smoothSolver:  Solving for nuTilda, Initial residual = 0.00302699, Final residual = 0.000284027, No Iterations 2
bounding nuTilda, min: -0.000273203 max: 0.150374 average: 0.124152
ExecutionTime = 0.59 s  ClockTime = 0 s

Time = 30

smoothSolver:  Solving for Ux, Initial residual = 0.0103317, Final residual = 0.000747744, No Iterations 2
smoothSolver:  Solving for Uy, Initial residual = 0.00770777, Final residual = 0.000692506, No Iterations 2
GAMG:  Solving for p, Initial residual = 0.45361, Final residual = 0.0208791, No Iterations 4
time step continuity errors : sum local = 0.000379727, global = 4.27536e-17, cumulative = -2.69003e-15
smoothSolver:  Solving for nuTilda, Initial residual = 0.00299409, Final residual = 0.000282077, No Iterations 2
ExecutionTime = 0.61 s  ClockTime = 1 s

Time = 31

smoothSolver:  Solving for Ux, Initial residual = 0.0103984, Final residual = 0.000776513, No Iterations 2
smoothSolver:  Solving for Uy, Initial residual = 0.00714259, Final residual = 0.000630294, No Iterations 2
GAMG:  Solving for p, Initial residual = 0.434154, Final residual = 0.0365599, No Iterations 3
time step continuity errors : sum local = 0.000653261, global = -1.03345e-15, cumulative = -3.72348e-15
smoothSolver:  Solving for nuTilda, Initial residual = 0.00296801, Final residual = 0.000280429, No Iterations 2
ExecutionTime = 0.63 s  ClockTime = 1 s

Time = 32

smoothSolver:  Solving for Ux, Initial residual = 0.0101277, Final residual = 0.000749474, No Iterations 2
smoothSolver:  Solving for Uy, Initial residual = 0.00684099, Final residual = 0.000585785, No Iterations 2
GAMG:  Solving for p, Initial residual = 0.415147, Final residual = 0.0323306, No Iterations 3
time step continuity errors : sum local = 0.000566245, global = 3.54388e-16, cumulative = -3.36909e-15
smoothSolver:  Solving for nuTilda, Initial residual = 0.00294423, Final residual = 0.000279054, No Iterations 2
ExecutionTime = 0.64 s  ClockTime = 1 s

Time = 33

smoothSolver:  Solving for Ux, Initial residual = 0.00972586, Final residual = 0.000697762, No Iterations 2
smoothSolver:  Solving for Uy, Initial residual = 0.00681368, Final residual = 0.000593348, No Iterations 2
GAMG:  Solving for p, Initial residual = 0.389217, Final residual = 0.0134391, No Iterations 4
time step continuity errors : sum local = 0.000229213, global = -1.52575e-16, cumulative = -3.52167e-15
smoothSolver:  Solving for nuTilda, Initial residual = 0.00292149, Final residual = 0.000278178, No Iterations 2
ExecutionTime = 0.66 s  ClockTime = 1 s

Time = 34

smoothSolver:  Solving for Ux, Initial residual = 0.00931025, Final residual = 0.000658283, No Iterations 2
smoothSolver:  Solving for Uy, Initial residual = 0.00708773, Final residual = 0.000629608, No Iterations 2
GAMG:  Solving for p, Initial residual = 0.366275, Final residual = 0.0355996, No Iterations 3
time step continuity errors : sum local = 0.000599101, global = 4.60964e-16, cumulative = -3.06071e-15
smoothSolver:  Solving for nuTilda, Initial residual = 0.00289678, Final residual = 0.000276979, No Iterations 2
ExecutionTime = 0.68 s  ClockTime = 1 s

Time = 35

smoothSolver:  Solving for Ux, Initial residual = 0.00913928, Final residual = 0.000638281, No Iterations 2
smoothSolver:  Solving for Uy, Initial residual = 0.00712807, Final residual = 0.000644007, No Iterations 2
GAMG:  Solving for p, Initial residual = 0.358179, Final residual = 0.0133251, No Iterations 4
time step continuity errors : sum local = 0.000218569, global = -1.49551e-16, cumulative = -3.21026e-15
smoothSolver:  Solving for nuTilda, Initial residual = 0.00287294, Final residual = 0.000275234, No Iterations 2
ExecutionTime = 0.7 s  ClockTime = 1 s

Time = 36

smoothSolver:  Solving for Ux, Initial residual = 0.00936904, Final residual = 0.000630367, No Iterations 2
smoothSolver:  Solving for Uy, Initial residual = 0.00673671, Final residual = 0.000618771, No Iterations 2
GAMG:  Solving for p, Initial residual = 0.342669, Final residual = 0.0285602, No Iterations 3
time step continuity errors : sum local = 0.000466584, global = 5.17328e-17, cumulative = -3.15852e-15
smoothSolver:  Solving for nuTilda, Initial residual = 0.00284944, Final residual = 0.000273561, No Iterations 2
ExecutionTime = 0.71 s  ClockTime = 1 s

Time = 37

smoothSolver:  Solving for Ux, Initial residual = 0.00930763, Final residual = 0.000630759, No Iterations 2
smoothSolver:  Solving for Uy, Initial residual = 0.00623397, Final residual = 0.000571418, No Iterations 2
GAMG:  Solving for p, Initial residual = 0.320174, Final residual = 0.0134935, No Iterations 4
time step continuity errors : sum local = 0.000212626, global = 2.28771e-16, cumulative = -2.92975e-15
smoothSolver:  Solving for nuTilda, Initial residual = 0.00282749, Final residual = 0.000271766, No Iterations 2
ExecutionTime = 0.73 s  ClockTime = 1 s

Time = 38

smoothSolver:  Solving for Ux, Initial residual = 0.0087931, Final residual = 0.000620629, No Iterations 2
smoothSolver:  Solving for Uy, Initial residual = 0.00582046, Final residual = 0.000527318, No Iterations 2
GAMG:  Solving for p, Initial residual = 0.298961, Final residual = 0.02344, No Iterations 4
time step continuity errors : sum local = 0.000367093, global = 2.52915e-16, cumulative = -2.67684e-15
smoothSolver:  Solving for nuTilda, Initial residual = 0.00280393, Final residual = 0.000269919, No Iterations 2
ExecutionTime = 0.75 s  ClockTime = 1 s

Time = 39

smoothSolver:  Solving for Ux, Initial residual = 0.00860607, Final residual = 0.000601171, No Iterations 2
smoothSolver:  Solving for Uy, Initial residual = 0.00561633, Final residual = 0.000506335, No Iterations 2
GAMG:  Solving for p, Initial residual = 0.284641, Final residual = 0.0178193, No Iterations 3
time step continuity errors : sum local = 0.000273187, global = 1.30599e-16, cumulative = -2.54624e-15
smoothSolver:  Solving for nuTilda, Initial residual = 0.00278414, Final residual = 0.000268005, No Iterations 2
ExecutionTime = 0.76 s  ClockTime = 1 s

Time = 40

smoothSolver:  Solving for Ux, Initial residual = 0.00847429, Final residual = 0.000579686, No Iterations 2
smoothSolver:  Solving for Uy, Initial residual = 0.0055952, Final residual = 0.00051093, No Iterations 2
GAMG:  Solving for p, Initial residual = 0.271275, Final residual = 0.00840812, No Iterations 4
time step continuity errors : sum local = 0.000128292, global = 1.46831e-16, cumulative = -2.39941e-15
smoothSolver:  Solving for nuTilda, Initial residual = 0.00276397, Final residual = 0.000266152, No Iterations 2
ExecutionTime = 0.78 s  ClockTime = 1 s

Time = 41

smoothSolver:  Solving for Ux, Initial residual = 0.00832344, Final residual = 0.000556408, No Iterations 2
smoothSolver:  Solving for Uy, Initial residual = 0.00574834, Final residual = 0.000528135, No Iterations 2
GAMG:  Solving for p, Initial residual = 0.248018, Final residual = 0.0195479, No Iterations 4
time step continuity errors : sum local = 0.000296958, global = 4.79699e-16, cumulative = -1.91971e-15
smoothSolver:  Solving for nuTilda, Initial residual = 0.00274743, Final residual = 0.000264146, No Iterations 2
ExecutionTime = 0.8 s  ClockTime = 1 s

Time = 42

smoothSolver:  Solving for Ux, Initial residual = 0.00831267, Final residual = 0.000545872, No Iterations 2
smoothSolver:  Solving for Uy, Initial residual = 0.00584525, Final residual = 0.000528627, No Iterations 2
GAMG:  Solving for p, Initial residual = 0.231786, Final residual = 0.0177234, No Iterations 3
time step continuity errors : sum local = 0.000266472, global = -6.28637e-16, cumulative = -2.54835e-15
smoothSolver:  Solving for nuTilda, Initial residual = 0.00273307, Final residual = 0.000262, No Iterations 2
ExecutionTime = 0.81 s  ClockTime = 1 s

Time = 43

smoothSolver:  Solving for Ux, Initial residual = 0.00815754, Final residual = 0.000535933, No Iterations 2
smoothSolver:  Solving for Uy, Initial residual = 0.00568275, Final residual = 0.000507764, No Iterations 2
GAMG:  Solving for p, Initial residual = 0.227468, Final residual = 0.0212844, No Iterations 3
time step continuity errors : sum local = 0.000317168, global = -5.39017e-16, cumulative = -3.08736e-15
smoothSolver:  Solving for nuTilda, Initial residual = 0.00271956, Final residual = 0.000259807, No Iterations 2
ExecutionTime = 0.83 s  ClockTime = 1 s

Time = 44

smoothSolver:  Solving for Ux, Initial residual = 0.00794432, Final residual = 0.000522347, No Iterations 2
smoothSolver:  Solving for Uy, Initial residual = 0.00533819, Final residual = 0.000475578, No Iterations 2
GAMG:  Solving for p, Initial residual = 0.217369, Final residual = 0.0182248, No Iterations 3
time step continuity errors : sum local = 0.000262253, global = -5.95266e-16, cumulative = -3.68263e-15
smoothSolver:  Solving for nuTilda, Initial residual = 0.00270852, Final residual = 0.000257687, No Iterations 2
ExecutionTime = 0.85 s  ClockTime = 1 s

Time = 45

smoothSolver:  Solving for Ux, Initial residual = 0.00772078, Final residual = 0.000507005, No Iterations 2
smoothSolver:  Solving for Uy, Initial residual = 0.00506349, Final residual = 0.000458273, No Iterations 2
GAMG:  Solving for p, Initial residual = 0.199998, Final residual = 0.00823413, No Iterations 4
time step continuity errors : sum local = 0.000119453, global = -3.3962e-16, cumulative = -4.02225e-15
smoothSolver:  Solving for nuTilda, Initial residual = 0.00269853, Final residual = 0.000255476, No Iterations 2
ExecutionTime = 0.86 s  ClockTime = 1 s

Time = 46

smoothSolver:  Solving for Ux, Initial residual = 0.00758015, Final residual = 0.000497638, No Iterations 2
smoothSolver:  Solving for Uy, Initial residual = 0.00491714, Final residual = 0.000453271, No Iterations 2
GAMG:  Solving for p, Initial residual = 0.182559, Final residual = 0.014451, No Iterations 3
time step continuity errors : sum local = 0.00021118, global = 3.1867e-16, cumulative = -3.70358e-15
smoothSolver:  Solving for nuTilda, Initial residual = 0.00268899, Final residual = 0.000253181, No Iterations 2
ExecutionTime = 0.87 s  ClockTime = 1 s

Time = 47

smoothSolver:  Solving for Ux, Initial residual = 0.00743508, Final residual = 0.000484633, No Iterations 2
smoothSolver:  Solving for Uy, Initial residual = 0.00486703, Final residual = 0.000449236, No Iterations 2
GAMG:  Solving for p, Initial residual = 0.17334, Final residual = 0.0145561, No Iterations 3
time step continuity errors : sum local = 0.0002142, global = -4.7234e-17, cumulative = -3.75081e-15
smoothSolver:  Solving for nuTilda, Initial residual = 0.00267892, Final residual = 0.000251073, No Iterations 2
ExecutionTime = 0.89 s  ClockTime = 1 s

Time = 48

smoothSolver:  Solving for Ux, Initial residual = 0.00729218, Final residual = 0.000472099, No Iterations 2
smoothSolver:  Solving for Uy, Initial residual = 0.00486191, Final residual = 0.000443258, No Iterations 2
GAMG:  Solving for p, Initial residual = 0.16309, Final residual = 0.0114659, No Iterations 3
time step continuity errors : sum local = 0.000164605, global = -7.48127e-17, cumulative = -3.82563e-15
smoothSolver:  Solving for nuTilda, Initial residual = 0.00267165, Final residual = 0.000248872, No Iterations 2
ExecutionTime = 0.91 s  ClockTime = 1 s

Time = 49

smoothSolver:  Solving for Ux, Initial residual = 0.00712331, Final residual = 0.000457733, No Iterations 2
smoothSolver:  Solving for Uy, Initial residual = 0.0048604, Final residual = 0.000433999, No Iterations 2
GAMG:  Solving for p, Initial residual = 0.153353, Final residual = 0.0057917, No Iterations 4
time step continuity errors : sum local = 8.34989e-05, global = 6.82575e-16, cumulative = -3.14305e-15
smoothSolver:  Solving for nuTilda, Initial residual = 0.00266454, Final residual = 0.000246809, No Iterations 2
ExecutionTime = 0.93 s  ClockTime = 1 s

Time = 50

smoothSolver:  Solving for Ux, Initial residual = 0.00705347, Final residual = 0.0004469, No Iterations 2
smoothSolver:  Solving for Uy, Initial residual = 0.00483686, Final residual = 0.000422462, No Iterations 2
GAMG:  Solving for p, Initial residual = 0.141704, Final residual = 0.0120467, No Iterations 3
time step continuity errors : sum local = 0.000174163, global = 5.71103e-17, cumulative = -3.08594e-15
smoothSolver:  Solving for nuTilda, Initial residual = 0.00265841, Final residual = 0.000244849, No Iterations 2
ExecutionTime = 0.98 s  ClockTime = 1 s

Time = 51

smoothSolver:  Solving for Ux, Initial residual = 0.00694153, Final residual = 0.000435873, No Iterations 2
smoothSolver:  Solving for Uy, Initial residual = 0.0047435, Final residual = 0.000411954, No Iterations 2
GAMG:  Solving for p, Initial residual = 0.136079, Final residual = 0.00991455, No Iterations 3
time step continuity errors : sum local = 0.000139977, global = 3.06846e-16, cumulative = -2.7791e-15
smoothSolver:  Solving for nuTilda, Initial residual = 0.00265291, Final residual = 0.00024305, No Iterations 2
ExecutionTime = 1 s  ClockTime = 1 s

Time = 52

smoothSolver:  Solving for Ux, Initial residual = 0.00677181, Final residual = 0.000422634, No Iterations 2
smoothSolver:  Solving for Uy, Initial residual = 0.00464665, Final residual = 0.00040632, No Iterations 2
GAMG:  Solving for p, Initial residual = 0.129188, Final residual = 0.0108046, No Iterations 3
time step continuity errors : sum local = 0.000151691, global = -3.25154e-16, cumulative = -3.10425e-15
smoothSolver:  Solving for nuTilda, Initial residual = 0.0026445, Final residual = 0.000241043, No Iterations 2
ExecutionTime = 1.02 s  ClockTime = 1 s

Time = 53

smoothSolver:  Solving for Ux, Initial residual = 0.00655013, Final residual = 0.000409725, No Iterations 2
smoothSolver:  Solving for Uy, Initial residual = 0.00457026, Final residual = 0.000403062, No Iterations 2
GAMG:  Solving for p, Initial residual = 0.120447, Final residual = 0.0047177, No Iterations 4
time step continuity errors : sum local = 6.71032e-05, global = 5.93594e-16, cumulative = -2.51065e-15
smoothSolver:  Solving for nuTilda, Initial residual = 0.00263549, Final residual = 0.000239129, No Iterations 2
ExecutionTime = 1.03 s  ClockTime = 1 s

Time = 54

smoothSolver:  Solving for Ux, Initial residual = 0.00640011, Final residual = 0.000402585, No Iterations 2
smoothSolver:  Solving for Uy, Initial residual = 0.00451386, Final residual = 0.000397297, No Iterations 2
GAMG:  Solving for p, Initial residual = 0.110584, Final residual = 0.00870828, No Iterations 3
time step continuity errors : sum local = 0.00012581, global = -5.75853e-16, cumulative = -3.08651e-15
smoothSolver:  Solving for nuTilda, Initial residual = 0.00262507, Final residual = 0.00023718, No Iterations 2
ExecutionTime = 1.04 s  ClockTime = 1 s

Time = 55

smoothSolver:  Solving for Ux, Initial residual = 0.00627131, Final residual = 0.000392706, No Iterations 2
smoothSolver:  Solving for Uy, Initial residual = 0.00445715, Final residual = 0.000387739, No Iterations 2
GAMG:  Solving for p, Initial residual = 0.104299, Final residual = 0.00711392, No Iterations 3
time step continuity errors : sum local = 0.000101388, global = 1.61247e-16, cumulative = -2.92526e-15
smoothSolver:  Solving for nuTilda, Initial residual = 0.00261659, Final residual = 0.000235575, No Iterations 2
ExecutionTime = 1.06 s  ClockTime = 1 s

Time = 56

smoothSolver:  Solving for Ux, Initial residual = 0.00614352, Final residual = 0.000381573, No Iterations 2
smoothSolver:  Solving for Uy, Initial residual = 0.00439378, Final residual = 0.000377201, No Iterations 2
GAMG:  Solving for p, Initial residual = 0.100305, Final residual = 0.00360684, No Iterations 4
time step continuity errors : sum local = 5.19589e-05, global = 8.51249e-16, cumulative = -2.07401e-15
smoothSolver:  Solving for nuTilda, Initial residual = 0.00260495, Final residual = 0.000233911, No Iterations 2
ExecutionTime = 1.08 s  ClockTime = 1 s

Time = 57

smoothSolver:  Solving for Ux, Initial residual = 0.00606068, Final residual = 0.000371561, No Iterations 2
smoothSolver:  Solving for Uy, Initial residual = 0.00435312, Final residual = 0.000367427, No Iterations 2
GAMG:  Solving for p, Initial residual = 0.0938251, Final residual = 0.0033423, No Iterations 4
time step continuity errors : sum local = 4.8321e-05, global = -6.58889e-16, cumulative = -2.7329e-15
smoothSolver:  Solving for nuTilda, Initial residual = 0.00259417, Final residual = 0.000232455, No Iterations 2
ExecutionTime = 1.1 s  ClockTime = 1 s

Time = 58

smoothSolver:  Solving for Ux, Initial residual = 0.00595056, Final residual = 0.000362355, No Iterations 2
smoothSolver:  Solving for Uy, Initial residual = 0.00431784, Final residual = 0.000361252, No Iterations 2
GAMG:  Solving for p, Initial residual = 0.0870965, Final residual = 0.00770416, No Iterations 3
time step continuity errors : sum local = 0.000112691, global = -2.7817e-16, cumulative = -3.01107e-15
smoothSolver:  Solving for nuTilda, Initial residual = 0.0025833, Final residual = 0.000231018, No Iterations 2
ExecutionTime = 1.11 s  ClockTime = 1 s

Time = 59

smoothSolver:  Solving for Ux, Initial residual = 0.0057976, Final residual = 0.000352161, No Iterations 2
smoothSolver:  Solving for Uy, Initial residual = 0.00427901, Final residual = 0.000357546, No Iterations 2
GAMG:  Solving for p, Initial residual = 0.0819072, Final residual = 0.00552336, No Iterations 3
time step continuity errors : sum local = 7.9353e-05, global = 7.56662e-16, cumulative = -2.25441e-15
smoothSolver:  Solving for nuTilda, Initial residual = 0.00257276, Final residual = 0.000229834, No Iterations 2
ExecutionTime = 1.13 s  ClockTime = 1 s

Time = 60

smoothSolver:  Solving for Ux, Initial residual = 0.00563397, Final residual = 0.000340631, No Iterations 2
smoothSolver:  Solving for Uy, Initial residual = 0.00424918, Final residual = 0.00035372, No Iterations 2
GAMG:  Solving for p, Initial residual = 0.0777074, Final residual = 0.00584795, No Iterations 3
time step continuity errors : sum local = 8.38569e-05, global = -2.7966e-16, cumulative = -2.53407e-15
smoothSolver:  Solving for nuTilda, Initial residual = 0.00256024, Final residual = 0.000228536, No Iterations 2
ExecutionTime = 1.14 s  ClockTime = 1 s

Time = 61

smoothSolver:  Solving for Ux, Initial residual = 0.00548381, Final residual = 0.000330342, No Iterations 2
smoothSolver:  Solving for Uy, Initial residual = 0.0042409, Final residual = 0.000349173, No Iterations 2
GAMG:  Solving for p, Initial residual = 0.073671, Final residual = 0.00557969, No Iterations 3
time step continuity errors : sum local = 8.01349e-05, global = -2.04025e-16, cumulative = -2.73809e-15
smoothSolver:  Solving for nuTilda, Initial residual = 0.00254475, Final residual = 0.000227253, No Iterations 2
ExecutionTime = 1.16 s  ClockTime = 1 s

Time = 62

smoothSolver:  Solving for Ux, Initial residual = 0.00536033, Final residual = 0.000321898, No Iterations 2
smoothSolver:  Solving for Uy, Initial residual = 0.0042279, Final residual = 0.000343436, No Iterations 2
GAMG:  Solving for p, Initial residual = 0.0690673, Final residual = 0.00532318, No Iterations 3
time step continuity errors : sum local = 7.64986e-05, global = 4.22996e-16, cumulative = -2.3151e-15
smoothSolver:  Solving for nuTilda, Initial residual = 0.00252836, Final residual = 0.000225847, No Iterations 2
ExecutionTime = 1.17 s  ClockTime = 1 s

Time = 63

smoothSolver:  Solving for Ux, Initial residual = 0.00524745, Final residual = 0.000313238, No Iterations 2
smoothSolver:  Solving for Uy, Initial residual = 0.00420302, Final residual = 0.00033759, No Iterations 2
GAMG:  Solving for p, Initial residual = 0.0662719, Final residual = 0.00630664, No Iterations 3
time step continuity errors : sum local = 9.26388e-05, global = 9.67649e-16, cumulative = -1.34745e-15
smoothSolver:  Solving for nuTilda, Initial residual = 0.00250975, Final residual = 0.000224603, No Iterations 2
ExecutionTime = 1.19 s  ClockTime = 1 s

Time = 64

smoothSolver:  Solving for Ux, Initial residual = 0.00514551, Final residual = 0.000305207, No Iterations 2
smoothSolver:  Solving for Uy, Initial residual = 0.00415725, Final residual = 0.000331001, No Iterations 2
GAMG:  Solving for p, Initial residual = 0.0629489, Final residual = 0.00502044, No Iterations 3
time step continuity errors : sum local = 7.2778e-05, global = 8.49563e-17, cumulative = -1.26249e-15
smoothSolver:  Solving for nuTilda, Initial residual = 0.00249055, Final residual = 0.000223338, No Iterations 2
ExecutionTime = 1.21 s  ClockTime = 1 s

Time = 65

smoothSolver:  Solving for Ux, Initial residual = 0.00503263, Final residual = 0.000296483, No Iterations 2
smoothSolver:  Solving for Uy, Initial residual = 0.00409847, Final residual = 0.000325318, No Iterations 2
GAMG:  Solving for p, Initial residual = 0.0597662, Final residual = 0.00503218, No Iterations 3
time step continuity errors : sum local = 7.32505e-05, global = 1.21919e-16, cumulative = -1.14057e-15
smoothSolver:  Solving for nuTilda, Initial residual = 0.002471, Final residual = 0.000222102, No Iterations 2
ExecutionTime = 1.22 s  ClockTime = 1 s

Time = 66

smoothSolver:  Solving for Ux, Initial residual = 0.0049185, Final residual = 0.000288434, No Iterations 2
smoothSolver:  Solving for Uy, Initial residual = 0.00404756, Final residual = 0.000320092, No Iterations 2
GAMG:  Solving for p, Initial residual = 0.0557933, Final residual = 0.00406429, No Iterations 3
time step continuity errors : sum local = 5.92294e-05, global = 2.64946e-16, cumulative = -8.75629e-16
smoothSolver:  Solving for nuTilda, Initial residual = 0.00245171, Final residual = 0.000220874, No Iterations 2
ExecutionTime = 1.25 s  ClockTime = 1 s

Time = 67

smoothSolver:  Solving for Ux, Initial residual = 0.00479882, Final residual = 0.00028052, No Iterations 2
smoothSolver:  Solving for Uy, Initial residual = 0.00402382, Final residual = 0.000316076, No Iterations 2
GAMG:  Solving for p, Initial residual = 0.0533741, Final residual = 0.00294288, No Iterations 3
time step continuity errors : sum local = 4.29814e-05, global = 4.85423e-16, cumulative = -3.90205e-16
smoothSolver:  Solving for nuTilda, Initial residual = 0.00243122, Final residual = 0.000219621, No Iterations 2
ExecutionTime = 1.27 s  ClockTime = 1 s

Time = 68

smoothSolver:  Solving for Ux, Initial residual = 0.00467371, Final residual = 0.000272026, No Iterations 2
smoothSolver:  Solving for Uy, Initial residual = 0.00403156, Final residual = 0.000313953, No Iterations 2
GAMG:  Solving for p, Initial residual = 0.051059, Final residual = 0.00331596, No Iterations 3
time step continuity errors : sum local = 4.83231e-05, global = -5.15177e-16, cumulative = -9.05383e-16
smoothSolver:  Solving for nuTilda, Initial residual = 0.00240858, Final residual = 0.000218206, No Iterations 2
ExecutionTime = 1.28 s  ClockTime = 1 s

Time = 69

smoothSolver:  Solving for Ux, Initial residual = 0.00454681, Final residual = 0.000263346, No Iterations 2
smoothSolver:  Solving for Uy, Initial residual = 0.00406184, Final residual = 0.000313675, No Iterations 2
GAMG:  Solving for p, Initial residual = 0.0486116, Final residual = 0.00158395, No Iterations 4
time step continuity errors : sum local = 2.34623e-05, global = -4.52265e-16, cumulative = -1.35765e-15
smoothSolver:  Solving for nuTilda, Initial residual = 0.00238501, Final residual = 0.000216809, No Iterations 2
ExecutionTime = 1.3 s  ClockTime = 1 s

Time = 70

smoothSolver:  Solving for Ux, Initial residual = 0.00444506, Final residual = 0.000256385, No Iterations 2
smoothSolver:  Solving for Uy, Initial residual = 0.00409777, Final residual = 0.000313346, No Iterations 2
GAMG:  Solving for p, Initial residual = 0.0453863, Final residual = 0.0045346, No Iterations 3
time step continuity errors : sum local = 6.77892e-05, global = 5.2048e-16, cumulative = -8.37168e-16
smoothSolver:  Solving for nuTilda, Initial residual = 0.00236033, Final residual = 0.000215324, No Iterations 2
ExecutionTime = 1.32 s  ClockTime = 1 s

Time = 71

smoothSolver:  Solving for Ux, Initial residual = 0.00435703, Final residual = 0.000249999, No Iterations 2
smoothSolver:  Solving for Uy, Initial residual = 0.00408271, Final residual = 0.000310338, No Iterations 2
GAMG:  Solving for p, Initial residual = 0.0435094, Final residual = 0.00312648, No Iterations 3
time step continuity errors : sum local = 4.61748e-05, global = -3.1461e-17, cumulative = -8.68629e-16
smoothSolver:  Solving for nuTilda, Initial residual = 0.0023361, Final residual = 0.000213792, No Iterations 2
ExecutionTime = 1.33 s  ClockTime = 1 s

Time = 72

smoothSolver:  Solving for Ux, Initial residual = 0.00426547, Final residual = 0.000243809, No Iterations 2
smoothSolver:  Solving for Uy, Initial residual = 0.00403605, Final residual = 0.000305964, No Iterations 2
GAMG:  Solving for p, Initial residual = 0.041564, Final residual = 0.00161448, No Iterations 4
time step continuity errors : sum local = 2.40577e-05, global = -2.9185e-16, cumulative = -1.16048e-15
smoothSolver:  Solving for nuTilda, Initial residual = 0.00231199, Final residual = 0.000212179, No Iterations 2
ExecutionTime = 1.35 s  ClockTime = 1 s

Time = 73

smoothSolver:  Solving for Ux, Initial residual = 0.0041955, Final residual = 0.000238958, No Iterations 2
smoothSolver:  Solving for Uy, Initial residual = 0.00397175, Final residual = 0.000299509, No Iterations 2
GAMG:  Solving for p, Initial residual = 0.0391414, Final residual = 0.00280869, No Iterations 3
time step continuity errors : sum local = 4.14398e-05, global = -2.05104e-17, cumulative = -1.18099e-15
smoothSolver:  Solving for nuTilda, Initial residual = 0.00228645, Final residual = 0.000210427, No Iterations 2
ExecutionTime = 1.37 s  ClockTime = 1 s

Time = 74

smoothSolver:  Solving for Ux, Initial residual = 0.00412087, Final residual = 0.000234296, No Iterations 2
smoothSolver:  Solving for Uy, Initial residual = 0.0039564, Final residual = 0.000296572, No Iterations 2
GAMG:  Solving for p, Initial residual = 0.037394, Final residual = 0.00206193, No Iterations 3
time step continuity errors : sum local = 3.03662e-05, global = -8.332e-16, cumulative = -2.01419e-15
smoothSolver:  Solving for nuTilda, Initial residual = 0.00226073, Final residual = 0.000208547, No Iterations 2
ExecutionTime = 1.38 s  ClockTime = 1 s

Time = 75

smoothSolver:  Solving for Ux, Initial residual = 0.00403984, Final residual = 0.000229637, No Iterations 2
smoothSolver:  Solving for Uy, Initial residual = 0.00396766, Final residual = 0.000296312, No Iterations 2
GAMG:  Solving for p, Initial residual = 0.0360735, Final residual = 0.0022636, No Iterations 3
time step continuity errors : sum local = 3.32401e-05, global = -1.6385e-16, cumulative = -2.17804e-15
smoothSolver:  Solving for nuTilda, Initial residual = 0.00223236, Final residual = 0.000206696, No Iterations 2
ExecutionTime = 1.4 s  ClockTime = 1 s

Time = 76

smoothSolver:  Solving for Ux, Initial residual = 0.0039548, Final residual = 0.000225043, No Iterations 2
smoothSolver:  Solving for Uy, Initial residual = 0.00400637, Final residual = 0.000297792, No Iterations 2
GAMG:  Solving for p, Initial residual = 0.0344665, Final residual = 0.00114852, No Iterations 4
time step continuity errors : sum local = 1.70547e-05, global = -1.73305e-16, cumulative = -2.35134e-15
smoothSolver:  Solving for nuTilda, Initial residual = 0.00220227, Final residual = 0.000204657, No Iterations 2
ExecutionTime = 1.41 s  ClockTime = 1 s

Time = 77

smoothSolver:  Solving for Ux, Initial residual = 0.00387992, Final residual = 0.000221287, No Iterations 2
smoothSolver:  Solving for Uy, Initial residual = 0.00405256, Final residual = 0.00029929, No Iterations 2
GAMG:  Solving for p, Initial residual = 0.0326952, Final residual = 0.00101209, No Iterations 4
time step continuity errors : sum local = 1.50569e-05, global = -2.19956e-16, cumulative = -2.5713e-15
smoothSolver:  Solving for nuTilda, Initial residual = 0.00217278, Final residual = 0.000202505, No Iterations 2
ExecutionTime = 1.43 s  ClockTime = 1 s

Time = 78

smoothSolver:  Solving for Ux, Initial residual = 0.00381316, Final residual = 0.000218488, No Iterations 2
smoothSolver:  Solving for Uy, Initial residual = 0.00404981, Final residual = 0.000297865, No Iterations 2
GAMG:  Solving for p, Initial residual = 0.0311727, Final residual = 0.00258366, No Iterations 3
time step continuity errors : sum local = 3.87981e-05, global = 3.42188e-16, cumulative = -2.22911e-15
smoothSolver:  Solving for nuTilda, Initial residual = 0.00214114, Final residual = 0.000200293, No Iterations 2
ExecutionTime = 1.45 s  ClockTime = 1 s

Time = 79

smoothSolver:  Solving for Ux, Initial residual = 0.00374889, Final residual = 0.000216138, No Iterations 2
smoothSolver:  Solving for Uy, Initial residual = 0.00402079, Final residual = 0.00029458, No Iterations 2
GAMG:  Solving for p, Initial residual = 0.0302258, Final residual = 0.00119531, No Iterations 4
time step continuity errors : sum local = 1.78171e-05, global = 1.85211e-16, cumulative = -2.0439e-15
smoothSolver:  Solving for nuTilda, Initial residual = 0.00210946, Final residual = 0.000197922, No Iterations 2
ExecutionTime = 1.46 s  ClockTime = 1 s

Time = 80

smoothSolver:  Solving for Ux, Initial residual = 0.00370834, Final residual = 0.000214506, No Iterations 2
smoothSolver:  Solving for Uy, Initial residual = 0.00397215, Final residual = 0.000289753, No Iterations 2
GAMG:  Solving for p, Initial residual = 0.0289208, Final residual = 0.00103318, No Iterations 4
time step continuity errors : sum local = 1.53829e-05, global = -2.3309e-16, cumulative = -2.27699e-15
smoothSolver:  Solving for nuTilda, Initial residual = 0.00207633, Final residual = 0.000195444, No Iterations 2
ExecutionTime = 1.48 s  ClockTime = 1 s

Time = 81

smoothSolver:  Solving for Ux, Initial residual = 0.00366899, Final residual = 0.000213578, No Iterations 2
smoothSolver:  Solving for Uy, Initial residual = 0.00393943, Final residual = 0.000286404, No Iterations 2
GAMG:  Solving for p, Initial residual = 0.0274982, Final residual = 0.00216265, No Iterations 3
time step continuity errors : sum local = 3.25332e-05, global = 2.3063e-16, cumulative = -2.04636e-15
smoothSolver:  Solving for nuTilda, Initial residual = 0.002042, Final residual = 0.000192784, No Iterations 2
ExecutionTime = 1.49 s  ClockTime = 1 s

Time = 82

smoothSolver:  Solving for Ux, Initial residual = 0.00361823, Final residual = 0.000212893, No Iterations 2
smoothSolver:  Solving for Uy, Initial residual = 0.00394213, Final residual = 0.00028554, No Iterations 2
GAMG:  Solving for p, Initial residual = 0.0265747, Final residual = 0.00177261, No Iterations 3
time step continuity errors : sum local = 2.6067e-05, global = -3.19377e-17, cumulative = -2.0783e-15
smoothSolver:  Solving for nuTilda, Initial residual = 0.00200704, Final residual = 0.000189985, No Iterations 2
ExecutionTime = 1.51 s  ClockTime = 1 s

Time = 83

smoothSolver:  Solving for Ux, Initial residual = 0.00355447, Final residual = 0.000212076, No Iterations 2
smoothSolver:  Solving for Uy, Initial residual = 0.00396579, Final residual = 0.000286434, No Iterations 2
GAMG:  Solving for p, Initial residual = 0.0260303, Final residual = 0.000999569, No Iterations 4
time step continuity errors : sum local = 1.47944e-05, global = 6.09241e-16, cumulative = -1.46906e-15
smoothSolver:  Solving for nuTilda, Initial residual = 0.00197376, Final residual = 0.000187079, No Iterations 2
ExecutionTime = 1.53 s  ClockTime = 1 s

Time = 84

smoothSolver:  Solving for Ux, Initial residual = 0.00349648, Final residual = 0.00021214, No Iterations 2
smoothSolver:  Solving for Uy, Initial residual = 0.00400039, Final residual = 0.000287425, No Iterations 2
GAMG:  Solving for p, Initial residual = 0.0247641, Final residual = 0.00166209, No Iterations 4
time step continuity errors : sum local = 2.48685e-05, global = 3.09448e-16, cumulative = -1.15961e-15
smoothSolver:  Solving for nuTilda, Initial residual = 0.00194094, Final residual = 0.000184016, No Iterations 2
ExecutionTime = 1.54 s  ClockTime = 1 s

Time = 85

smoothSolver:  Solving for Ux, Initial residual = 0.00345236, Final residual = 0.000212903, No Iterations 2
smoothSolver:  Solving for Uy, Initial residual = 0.00400731, Final residual = 0.000286696, No Iterations 2
GAMG:  Solving for p, Initial residual = 0.0238113, Final residual = 0.00186073, No Iterations 3
time step continuity errors : sum local = 2.77583e-05, global = -2.64207e-17, cumulative = -1.18603e-15
smoothSolver:  Solving for nuTilda, Initial residual = 0.00190457, Final residual = 0.000180459, No Iterations 2
ExecutionTime = 1.56 s  ClockTime = 1 s

Time = 86

smoothSolver:  Solving for Ux, Initial residual = 0.00341562, Final residual = 0.000213875, No Iterations 2
smoothSolver:  Solving for Uy, Initial residual = 0.00398384, Final residual = 0.000284982, No Iterations 2
GAMG:  Solving for p, Initial residual = 0.023346, Final residual = 0.000892909, No Iterations 4
time step continuity errors : sum local = 1.31558e-05, global = -6.15897e-17, cumulative = -1.24762e-15
smoothSolver:  Solving for nuTilda, Initial residual = 0.00186591, Final residual = 0.000176642, No Iterations 2
ExecutionTime = 1.58 s  ClockTime = 1 s

Time = 87

smoothSolver:  Solving for Ux, Initial residual = 0.00339545, Final residual = 0.000215359, No Iterations 2
smoothSolver:  Solving for Uy, Initial residual = 0.00394087, Final residual = 0.000282119, No Iterations 2
GAMG:  Solving for p, Initial residual = 0.022641, Final residual = 0.00125367, No Iterations 4
time step continuity errors : sum local = 1.86009e-05, global = 6.62571e-16, cumulative = -5.85048e-16
smoothSolver:  Solving for nuTilda, Initial residual = 0.00182724, Final residual = 0.000172919, No Iterations 2
ExecutionTime = 1.6 s  ClockTime = 1 s

Time = 88

smoothSolver:  Solving for Ux, Initial residual = 0.00338054, Final residual = 0.000217539, No Iterations 2
smoothSolver:  Solving for Uy, Initial residual = 0.00390892, Final residual = 0.000279879, No Iterations 2
GAMG:  Solving for p, Initial residual = 0.0217054, Final residual = 0.00171885, No Iterations 3
time step continuity errors : sum local = 2.52982e-05, global = 2.01764e-16, cumulative = -3.83285e-16
smoothSolver:  Solving for nuTilda, Initial residual = 0.00178991, Final residual = 0.000169203, No Iterations 2
ExecutionTime = 1.61 s  ClockTime = 2 s

Time = 89

smoothSolver:  Solving for Ux, Initial residual = 0.00334969, Final residual = 0.000219566, No Iterations 2
smoothSolver:  Solving for Uy, Initial residual = 0.00391248, Final residual = 0.000280743, No Iterations 2
GAMG:  Solving for p, Initial residual = 0.0210934, Final residual = 0.00140264, No Iterations 4
time step continuity errors : sum local = 2.0659e-05, global = -2.51849e-16, cumulative = -6.35134e-16
smoothSolver:  Solving for nuTilda, Initial residual = 0.00175405, Final residual = 0.000165524, No Iterations 2
ExecutionTime = 1.63 s  ClockTime = 2 s

Time = 90

smoothSolver:  Solving for Ux, Initial residual = 0.00331246, Final residual = 0.00022177, No Iterations 2
smoothSolver:  Solving for Uy, Initial residual = 0.00394296, Final residual = 0.00028411, No Iterations 2
GAMG:  Solving for p, Initial residual = 0.0205126, Final residual = 0.00150659, No Iterations 4
time step continuity errors : sum local = 2.20839e-05, global = 2.01628e-16, cumulative = -4.33505e-16
smoothSolver:  Solving for nuTilda, Initial residual = 0.00171883, Final residual = 0.000161774, No Iterations 2
ExecutionTime = 1.65 s  ClockTime = 2 s

Time = 91

smoothSolver:  Solving for Ux, Initial residual = 0.0032755, Final residual = 0.000224001, No Iterations 2
smoothSolver:  Solving for Uy, Initial residual = 0.00397988, Final residual = 0.000288414, No Iterations 2
GAMG:  Solving for p, Initial residual = 0.0199577, Final residual = 0.00165728, No Iterations 3
time step continuity errors : sum local = 2.41192e-05, global = -4.3727e-16, cumulative = -8.70775e-16
smoothSolver:  Solving for nuTilda, Initial residual = 0.0016843, Final residual = 0.000158071, No Iterations 2
ExecutionTime = 1.67 s  ClockTime = 2 s

Time = 92

smoothSolver:  Solving for Ux, Initial residual = 0.00324266, Final residual = 0.000226162, No Iterations 2
smoothSolver:  Solving for Uy, Initial residual = 0.00400118, Final residual = 0.000291535, No Iterations 2
GAMG:  Solving for p, Initial residual = 0.0193781, Final residual = 0.00156266, No Iterations 3
time step continuity errors : sum local = 2.27098e-05, global = -1.93541e-16, cumulative = -1.06432e-15
smoothSolver:  Solving for nuTilda, Initial residual = 0.00165131, Final residual = 0.000154333, No Iterations 2
ExecutionTime = 1.69 s  ClockTime = 2 s

Time = 93

smoothSolver:  Solving for Ux, Initial residual = 0.00322544, Final residual = 0.000228465, No Iterations 2
smoothSolver:  Solving for Uy, Initial residual = 0.00401135, Final residual = 0.000293643, No Iterations 2
GAMG:  Solving for p, Initial residual = 0.0192819, Final residual = 0.00179794, No Iterations 3
time step continuity errors : sum local = 2.63266e-05, global = 1.19713e-16, cumulative = -9.44604e-16
smoothSolver:  Solving for nuTilda, Initial residual = 0.00161871, Final residual = 0.000150677, No Iterations 2
ExecutionTime = 1.7 s  ClockTime = 2 s

Time = 94

smoothSolver:  Solving for Ux, Initial residual = 0.00322399, Final residual = 0.000231097, No Iterations 2
smoothSolver:  Solving for Uy, Initial residual = 0.00401617, Final residual = 0.000294953, No Iterations 2
GAMG:  Solving for p, Initial residual = 0.01898, Final residual = 0.00183632, No Iterations 3
time step continuity errors : sum local = 2.70514e-05, global = -3.75587e-16, cumulative = -1.32019e-15
smoothSolver:  Solving for nuTilda, Initial residual = 0.00158899, Final residual = 0.000147063, No Iterations 2
ExecutionTime = 1.72 s  ClockTime = 2 s

Time = 95

smoothSolver:  Solving for Ux, Initial residual = 0.00322682, Final residual = 0.000233737, No Iterations 2
smoothSolver:  Solving for Uy, Initial residual = 0.00402212, Final residual = 0.000296031, No Iterations 2
GAMG:  Solving for p, Initial residual = 0.0185767, Final residual = 0.00136905, No Iterations 3
time step continuity errors : sum local = 1.98301e-05, global = 1.0927e-17, cumulative = -1.30926e-15
smoothSolver:  Solving for nuTilda, Initial residual = 0.00156125, Final residual = 0.000143576, No Iterations 2
ExecutionTime = 1.74 s  ClockTime = 2 s

Time = 96

smoothSolver:  Solving for Ux, Initial residual = 0.00321742, Final residual = 0.000235977, No Iterations 2
smoothSolver:  Solving for Uy, Initial residual = 0.00403572, Final residual = 0.000297711, No Iterations 2
GAMG:  Solving for p, Initial residual = 0.0179845, Final residual = 0.00165195, No Iterations 3
time step continuity errors : sum local = 2.44873e-05, global = -3.24362e-16, cumulative = -1.63363e-15
smoothSolver:  Solving for nuTilda, Initial residual = 0.00153674, Final residual = 0.000140108, No Iterations 2
ExecutionTime = 1.75 s  ClockTime = 2 s

Time = 97

smoothSolver:  Solving for Ux, Initial residual = 0.00320831, Final residual = 0.000238081, No Iterations 2
smoothSolver:  Solving for Uy, Initial residual = 0.00406024, Final residual = 0.000299643, No Iterations 2
GAMG:  Solving for p, Initial residual = 0.0176207, Final residual = 0.00125769, No Iterations 3
time step continuity errors : sum local = 1.82011e-05, global = 5.6982e-16, cumulative = -1.06381e-15
smoothSolver:  Solving for nuTilda, Initial residual = 0.00151401, Final residual = 0.000136683, No Iterations 2
ExecutionTime = 1.76 s  ClockTime = 2 s

Time = 98

smoothSolver:  Solving for Ux, Initial residual = 0.00318764, Final residual = 0.000239694, No Iterations 2
smoothSolver:  Solving for Uy, Initial residual = 0.00408642, Final residual = 0.000301804, No Iterations 2
GAMG:  Solving for p, Initial residual = 0.0173004, Final residual = 0.00070359, No Iterations 4
time step continuity errors : sum local = 1.02643e-05, global = -6.4536e-16, cumulative = -1.70917e-15
smoothSolver:  Solving for nuTilda, Initial residual = 0.00149379, Final residual = 0.000133303, No Iterations 2
ExecutionTime = 1.78 s  ClockTime = 2 s

Time = 99

smoothSolver:  Solving for Ux, Initial residual = 0.00318396, Final residual = 0.000241474, No Iterations 2
smoothSolver:  Solving for Uy, Initial residual = 0.00411756, Final residual = 0.00030412, No Iterations 2
GAMG:  Solving for p, Initial residual = 0.0169606, Final residual = 0.00166936, No Iterations 3
time step continuity errors : sum local = 2.46707e-05, global = 8.75066e-16, cumulative = -8.34101e-16
smoothSolver:  Solving for nuTilda, Initial residual = 0.00147593, Final residual = 0.000129941, No Iterations 2
ExecutionTime = 1.79 s  ClockTime = 2 s

Time = 100

smoothSolver:  Solving for Ux, Initial residual = 0.00318197, Final residual = 0.000242903, No Iterations 2
smoothSolver:  Solving for Uy, Initial residual = 0.00414001, Final residual = 0.000305551, No Iterations 2
GAMG:  Solving for p, Initial residual = 0.01662, Final residual = 0.00125941, No Iterations 3
time step continuity errors : sum local = 1.81329e-05, global = 1.27212e-16, cumulative = -7.06889e-16
smoothSolver:  Solving for nuTilda, Initial residual = 0.00146074, Final residual = 0.000126578, No Iterations 2
ExecutionTime = 1.85 s  ClockTime = 2 s

Time = 101

smoothSolver:  Solving for Ux, Initial residual = 0.00318256, Final residual = 0.000244056, No Iterations 2
smoothSolver:  Solving for Uy, Initial residual = 0.00415531, Final residual = 0.000306615, No Iterations 2
GAMG:  Solving for p, Initial residual = 0.0166812, Final residual = 0.00137527, No Iterations 3
time step continuity errors : sum local = 1.97403e-05, global = -3.75617e-16, cumulative = -1.08251e-15
smoothSolver:  Solving for nuTilda, Initial residual = 0.00144777, Final residual = 0.000123388, No Iterations 2
ExecutionTime = 1.86 s  ClockTime = 2 s

Time = 102

smoothSolver:  Solving for Ux, Initial residual = 0.00319472, Final residual = 0.000245289, No Iterations 2
smoothSolver:  Solving for Uy, Initial residual = 0.00417274, Final residual = 0.000307577, No Iterations 2
GAMG:  Solving for p, Initial residual = 0.016508, Final residual = 0.00136709, No Iterations 3
time step continuity errors : sum local = 1.95253e-05, global = -7.91528e-16, cumulative = -1.87403e-15
smoothSolver:  Solving for nuTilda, Initial residual = 0.00143542, Final residual = 0.000120243, No Iterations 2
ExecutionTime = 1.88 s  ClockTime = 2 s

Time = 103

smoothSolver:  Solving for Ux, Initial residual = 0.00321146, Final residual = 0.000246409, No Iterations 2
smoothSolver:  Solving for Uy, Initial residual = 0.00419393, Final residual = 0.00030818, No Iterations 2
GAMG:  Solving for p, Initial residual = 0.016229, Final residual = 0.00128224, No Iterations 3
time step continuity errors : sum local = 1.82838e-05, global = 2.03309e-16, cumulative = -1.67072e-15
smoothSolver:  Solving for nuTilda, Initial residual = 0.00142567, Final residual = 0.00011721, No Iterations 2
ExecutionTime = 1.91 s  ClockTime = 2 s

Time = 104

smoothSolver:  Solving for Ux, Initial residual = 0.00322295, Final residual = 0.000247123, No Iterations 2
smoothSolver:  Solving for Uy, Initial residual = 0.0042177, Final residual = 0.000308591, No Iterations 2
GAMG:  Solving for p, Initial residual = 0.0157715, Final residual = 0.00124633, No Iterations 3
time step continuity errors : sum local = 1.77162e-05, global = -6.26557e-16, cumulative = -2.29728e-15
smoothSolver:  Solving for nuTilda, Initial residual = 0.00141708, Final residual = 0.000114249, No Iterations 2
ExecutionTime = 1.92 s  ClockTime = 2 s

Time = 105

smoothSolver:  Solving for Ux, Initial residual = 0.00322523, Final residual = 0.000247337, No Iterations 2
smoothSolver:  Solving for Uy, Initial residual = 0.00423828, Final residual = 0.00030878, No Iterations 2
GAMG:  Solving for p, Initial residual = 0.0156639, Final residual = 0.00138658, No Iterations 3
time step continuity errors : sum local = 1.96687e-05, global = 6.80804e-17, cumulative = -2.2292e-15
smoothSolver:  Solving for nuTilda, Initial residual = 0.00140737, Final residual = 0.000111364, No Iterations 2
ExecutionTime = 1.94 s  ClockTime = 2 s

Time = 106

smoothSolver:  Solving for Ux, Initial residual = 0.0032241, Final residual = 0.000247145, No Iterations 2
smoothSolver:  Solving for Uy, Initial residual = 0.00425395, Final residual = 0.000308889, No Iterations 2
GAMG:  Solving for p, Initial residual = 0.0154944, Final residual = 0.00148027, No Iterations 3
time step continuity errors : sum local = 2.09208e-05, global = -7.94441e-16, cumulative = -3.02364e-15
smoothSolver:  Solving for nuTilda, Initial residual = 0.00139756, Final residual = 0.000108519, No Iterations 2
ExecutionTime = 1.95 s  ClockTime = 2 s

Time = 107

smoothSolver:  Solving for Ux, Initial residual = 0.00322622, Final residual = 0.000246693, No Iterations 2
smoothSolver:  Solving for Uy, Initial residual = 0.00426423, Final residual = 0.00030871, No Iterations 2
GAMG:  Solving for p, Initial residual = 0.0154664, Final residual = 0.00146834, No Iterations 3
time step continuity errors : sum local = 2.0733e-05, global = 9.42709e-16, cumulative = -2.08093e-15
smoothSolver:  Solving for nuTilda, Initial residual = 0.00138651, Final residual = 0.00010575, No Iterations 2
ExecutionTime = 1.97 s  ClockTime = 2 s

Time = 108

smoothSolver:  Solving for Ux, Initial residual = 0.00323335, Final residual = 0.000246047, No Iterations 2
smoothSolver:  Solving for Uy, Initial residual = 0.00427188, Final residual = 0.000308344, No Iterations 2
GAMG:  Solving for p, Initial residual = 0.015314, Final residual = 0.00140151, No Iterations 3
time step continuity errors : sum local = 1.97428e-05, global = 5.36749e-16, cumulative = -1.54418e-15
smoothSolver:  Solving for nuTilda, Initial residual = 0.00137526, Final residual = 0.00010308, No Iterations 2
ExecutionTime = 1.98 s  ClockTime = 2 s

Time = 109

smoothSolver:  Solving for Ux, Initial residual = 0.00324145, Final residual = 0.000245063, No Iterations 2
smoothSolver:  Solving for Uy, Initial residual = 0.00427937, Final residual = 0.000307701, No Iterations 2
GAMG:  Solving for p, Initial residual = 0.0152508, Final residual = 0.00140034, No Iterations 3
time step continuity errors : sum local = 1.971e-05, global = 3.39058e-16, cumulative = -1.20513e-15
smoothSolver:  Solving for nuTilda, Initial residual = 0.00136371, Final residual = 0.000100483, No Iterations 2
ExecutionTime = 2 s  ClockTime = 2 s

Time = 110

smoothSolver:  Solving for Ux, Initial residual = 0.00324444, Final residual = 0.000243689, No Iterations 2
smoothSolver:  Solving for Uy, Initial residual = 0.00428879, Final residual = 0.000307026, No Iterations 2
GAMG:  Solving for p, Initial residual = 0.0151257, Final residual = 0.00138462, No Iterations 3
time step continuity errors : sum local = 1.94317e-05, global = 2.71373e-17, cumulative = -1.17799e-15
smoothSolver:  Solving for nuTilda, Initial residual = 0.0013496, Final residual = 9.78953e-05, No Iterations 2
ExecutionTime = 2.01 s  ClockTime = 2 s

Time = 111

smoothSolver:  Solving for Ux, Initial residual = 0.00323998, Final residual = 0.000241864, No Iterations 2
smoothSolver:  Solving for Uy, Initial residual = 0.00429699, Final residual = 0.000306113, No Iterations 2
GAMG:  Solving for p, Initial residual = 0.0151316, Final residual = 0.00138812, No Iterations 3
time step continuity errors : sum local = 1.94584e-05, global = 2.79763e-16, cumulative = -8.98226e-16
smoothSolver:  Solving for nuTilda, Initial residual = 0.00133437, Final residual = 9.54054e-05, No Iterations 2
ExecutionTime = 2.03 s  ClockTime = 2 s

Time = 112

smoothSolver:  Solving for Ux, Initial residual = 0.00323019, Final residual = 0.000239704, No Iterations 2
smoothSolver:  Solving for Uy, Initial residual = 0.00430083, Final residual = 0.000305063, No Iterations 2
GAMG:  Solving for p, Initial residual = 0.0150433, Final residual = 0.00146387, No Iterations 3
time step continuity errors : sum local = 2.04283e-05, global = -1.74503e-16, cumulative = -1.07273e-15
smoothSolver:  Solving for nuTilda, Initial residual = 0.00131778, Final residual = 9.29675e-05, No Iterations 2
ExecutionTime = 2.04 s  ClockTime = 2 s

Time = 113

smoothSolver:  Solving for Ux, Initial residual = 0.00321822, Final residual = 0.000237271, No Iterations 2
smoothSolver:  Solving for Uy, Initial residual = 0.00429584, Final residual = 0.000303506, No Iterations 2
GAMG:  Solving for p, Initial residual = 0.0150272, Final residual = 0.00148193, No Iterations 4
time step continuity errors : sum local = 2.08057e-05, global = 3.74617e-17, cumulative = -1.03527e-15
smoothSolver:  Solving for nuTilda, Initial residual = 0.00129933, Final residual = 9.05506e-05, No Iterations 2
ExecutionTime = 2.06 s  ClockTime = 2 s

Time = 114

smoothSolver:  Solving for Ux, Initial residual = 0.0032149, Final residual = 0.000234984, No Iterations 2
smoothSolver:  Solving for Uy, Initial residual = 0.00428164, Final residual = 0.00030157, No Iterations 2
GAMG:  Solving for p, Initial residual = 0.014612, Final residual = 0.00145057, No Iterations 3
time step continuity errors : sum local = 2.01235e-05, global = 5.28632e-16, cumulative = -5.06635e-16
smoothSolver:  Solving for nuTilda, Initial residual = 0.00128085, Final residual = 8.81632e-05, No Iterations 2
ExecutionTime = 2.08 s  ClockTime = 2 s

Time = 115

smoothSolver:  Solving for Ux, Initial residual = 0.00319458, Final residual = 0.00023182, No Iterations 2
smoothSolver:  Solving for Uy, Initial residual = 0.00426441, Final residual = 0.000299125, No Iterations 2
GAMG:  Solving for p, Initial residual = 0.0146235, Final residual = 0.00144706, No Iterations 3
time step continuity errors : sum local = 2.00543e-05, global = 6.02826e-16, cumulative = 9.6192e-17
smoothSolver:  Solving for nuTilda, Initial residual = 0.00126098, Final residual = 8.58456e-05, No Iterations 2
ExecutionTime = 2.09 s  ClockTime = 2 s

Time = 116

smoothSolver:  Solving for Ux, Initial residual = 0.00317515, Final residual = 0.000228527, No Iterations 2
smoothSolver:  Solving for Uy, Initial residual = 0.00424558, Final residual = 0.000296857, No Iterations 2
GAMG:  Solving for p, Initial residual = 0.0147277, Final residual = 0.00138566, No Iterations 4
time step continuity errors : sum local = 1.93263e-05, global = 7.86724e-16, cumulative = 8.82916e-16
smoothSolver:  Solving for nuTilda, Initial residual = 0.00124049, Final residual = 8.35463e-05, No Iterations 2
ExecutionTime = 2.11 s  ClockTime = 2 s

Time = 117

smoothSolver:  Solving for Ux, Initial residual = 0.00316586, Final residual = 0.00022542, No Iterations 2
smoothSolver:  Solving for Uy, Initial residual = 0.00422547, Final residual = 0.000294793, No Iterations 2
GAMG:  Solving for p, Initial residual = 0.0145668, Final residual = 0.00145203, No Iterations 3
time step continuity errors : sum local = 2.00192e-05, global = 6.41182e-18, cumulative = 8.89328e-16
smoothSolver:  Solving for nuTilda, Initial residual = 0.00121967, Final residual = 8.13066e-05, No Iterations 2
ExecutionTime = 2.13 s  ClockTime = 2 s

Time = 118

smoothSolver:  Solving for Ux, Initial residual = 0.00313998, Final residual = 0.000221636, No Iterations 2
smoothSolver:  Solving for Uy, Initial residual = 0.00420603, Final residual = 0.000292394, No Iterations 2
GAMG:  Solving for p, Initial residual = 0.0145337, Final residual = 0.000496659, No Iterations 5
time step continuity errors : sum local = 6.797e-06, global = 8.47945e-16, cumulative = 1.73727e-15
smoothSolver:  Solving for nuTilda, Initial residual = 0.00119794, Final residual = 7.91925e-05, No Iterations 2
ExecutionTime = 2.15 s  ClockTime = 2 s

Time = 119

smoothSolver:  Solving for Ux, Initial residual = 0.00312319, Final residual = 0.000218075, No Iterations 2
smoothSolver:  Solving for Uy, Initial residual = 0.00418041, Final residual = 0.00028963, No Iterations 2
GAMG:  Solving for p, Initial residual = 0.0141771, Final residual = 0.00133718, No Iterations 3
time step continuity errors : sum local = 1.83031e-05, global = 2.23649e-16, cumulative = 1.96092e-15
smoothSolver:  Solving for nuTilda, Initial residual = 0.00117553, Final residual = 7.71347e-05, No Iterations 2
ExecutionTime = 2.16 s  ClockTime = 2 s

Time = 120

smoothSolver:  Solving for Ux, Initial residual = 0.00308396, Final residual = 0.000213598, No Iterations 2
smoothSolver:  Solving for Uy, Initial residual = 0.00415134, Final residual = 0.000286543, No Iterations 2
GAMG:  Solving for p, Initial residual = 0.0141637, Final residual = 0.00139087, No Iterations 4
time step continuity errors : sum local = 1.91239e-05, global = 4.45233e-16, cumulative = 2.40615e-15
smoothSolver:  Solving for nuTilda, Initial residual = 0.00115317, Final residual = 7.5135e-05, No Iterations 2
ExecutionTime = 2.18 s  ClockTime = 2 s

Time = 121

smoothSolver:  Solving for Ux, Initial residual = 0.00305394, Final residual = 0.000209343, No Iterations 2
smoothSolver:  Solving for Uy, Initial residual = 0.00410808, Final residual = 0.000283045, No Iterations 2
GAMG:  Solving for p, Initial residual = 0.0141268, Final residual = 0.000679052, No Iterations 5
time step continuity errors : sum local = 9.19017e-06, global = -5.83147e-16, cumulative = 1.82301e-15
smoothSolver:  Solving for nuTilda, Initial residual = 0.00113046, Final residual = 7.3192e-05, No Iterations 2
ExecutionTime = 2.2 s  ClockTime = 2 s

Time = 122

smoothSolver:  Solving for Ux, Initial residual = 0.00302712, Final residual = 0.000205253, No Iterations 2
smoothSolver:  Solving for Uy, Initial residual = 0.00405453, Final residual = 0.000279145, No Iterations 2
GAMG:  Solving for p, Initial residual = 0.0138334, Final residual = 0.000619993, No Iterations 5
time step continuity errors : sum local = 8.35113e-06, global = -2.91594e-16, cumulative = 1.53141e-15
smoothSolver:  Solving for nuTilda, Initial residual = 0.0011076, Final residual = 7.12811e-05, No Iterations 2
ExecutionTime = 2.22 s  ClockTime = 2 s

Time = 123

smoothSolver:  Solving for Ux, Initial residual = 0.00299594, Final residual = 0.000200815, No Iterations 2
smoothSolver:  Solving for Uy, Initial residual = 0.00400322, Final residual = 0.000275111, No Iterations 2
GAMG:  Solving for p, Initial residual = 0.0135997, Final residual = 0.00134972, No Iterations 3
time step continuity errors : sum local = 1.82218e-05, global = 2.2826e-16, cumulative = 1.75967e-15
smoothSolver:  Solving for nuTilda, Initial residual = 0.00108428, Final residual = 6.94106e-05, No Iterations 2
ExecutionTime = 2.23 s  ClockTime = 2 s

Time = 124

smoothSolver:  Solving for Ux, Initial residual = 0.00295155, Final residual = 0.000195814, No Iterations 2
smoothSolver:  Solving for Uy, Initial residual = 0.0039598, Final residual = 0.000271382, No Iterations 2
GAMG:  Solving for p, Initial residual = 0.0138412, Final residual = 0.000660284, No Iterations 5
time step continuity errors : sum local = 8.84032e-06, global = 3.8145e-17, cumulative = 1.79782e-15
smoothSolver:  Solving for nuTilda, Initial residual = 0.00106119, Final residual = 6.75778e-05, No Iterations 2
ExecutionTime = 2.25 s  ClockTime = 2 s

Time = 125

smoothSolver:  Solving for Ux, Initial residual = 0.00292, Final residual = 0.000191303, No Iterations 2
smoothSolver:  Solving for Uy, Initial residual = 0.0039067, Final residual = 0.000267664, No Iterations 2
GAMG:  Solving for p, Initial residual = 0.0136783, Final residual = 0.000648935, No Iterations 5
time step continuity errors : sum local = 8.66913e-06, global = -2.65242e-16, cumulative = 1.53258e-15
smoothSolver:  Solving for nuTilda, Initial residual = 0.00103759, Final residual = 6.57941e-05, No Iterations 2
ExecutionTime = 2.27 s  ClockTime = 2 s

Time = 126

smoothSolver:  Solving for Ux, Initial residual = 0.00288489, Final residual = 0.00018665, No Iterations 2
smoothSolver:  Solving for Uy, Initial residual = 0.0038494, Final residual = 0.000263681, No Iterations 2
GAMG:  Solving for p, Initial residual = 0.0133502, Final residual = 0.000600338, No Iterations 5
time step continuity errors : sum local = 7.98554e-06, global = 1.15592e-16, cumulative = 1.64817e-15
smoothSolver:  Solving for nuTilda, Initial residual = 0.00101335, Final residual = 6.40491e-05, No Iterations 2
ExecutionTime = 2.28 s  ClockTime = 2 s

Time = 127

smoothSolver:  Solving for Ux, Initial residual = 0.00284298, Final residual = 0.000181701, No Iterations 2
smoothSolver:  Solving for Uy, Initial residual = 0.0037878, Final residual = 0.00025908, No Iterations 2
GAMG:  Solving for p, Initial residual = 0.0131018, Final residual = 0.000576138, No Iterations 5
time step continuity errors : sum local = 7.65107e-06, global = -7.15233e-16, cumulative = 9.32936e-16
smoothSolver:  Solving for nuTilda, Initial residual = 0.000989249, Final residual = 6.2416e-05, No Iterations 2
ExecutionTime = 2.3 s  ClockTime = 2 s

Time = 128

smoothSolver:  Solving for Ux, Initial residual = 0.0027972, Final residual = 0.000176634, No Iterations 2
smoothSolver:  Solving for Uy, Initial residual = 0.0037213, Final residual = 0.000254279, No Iterations 2
GAMG:  Solving for p, Initial residual = 0.0129853, Final residual = 0.000588451, No Iterations 5
time step continuity errors : sum local = 7.782e-06, global = -7.42869e-16, cumulative = 1.90066e-16
smoothSolver:  Solving for nuTilda, Initial residual = 0.000965978, Final residual = 6.08019e-05, No Iterations 2
ExecutionTime = 2.32 s  ClockTime = 2 s

Time = 129

smoothSolver:  Solving for Ux, Initial residual = 0.0027517, Final residual = 0.000171604, No Iterations 2
smoothSolver:  Solving for Uy, Initial residual = 0.00365051, Final residual = 0.000249334, No Iterations 2
GAMG:  Solving for p, Initial residual = 0.0129592, Final residual = 0.000616679, No Iterations 5
time step continuity errors : sum local = 8.1389e-06, global = -6.55719e-17, cumulative = 1.24494e-16
smoothSolver:  Solving for nuTilda, Initial residual = 0.000942939, Final residual = 5.92329e-05, No Iterations 2
ExecutionTime = 2.35 s  ClockTime = 2 s

Time = 130

smoothSolver:  Solving for Ux, Initial residual = 0.00270816, Final residual = 0.000166694, No Iterations 2
smoothSolver:  Solving for Uy, Initial residual = 0.00357774, Final residual = 0.00024456, No Iterations 2
GAMG:  Solving for p, Initial residual = 0.0128499, Final residual = 0.000626554, No Iterations 5
time step continuity errors : sum local = 8.23501e-06, global = -3.2641e-16, cumulative = -2.01916e-16
smoothSolver:  Solving for nuTilda, Initial residual = 0.000920306, Final residual = 5.76376e-05, No Iterations 2
ExecutionTime = 2.36 s  ClockTime = 2 s

Time = 131

smoothSolver:  Solving for Ux, Initial residual = 0.00266508, Final residual = 0.000161804, No Iterations 2
smoothSolver:  Solving for Uy, Initial residual = 0.0035064, Final residual = 0.000239697, No Iterations 2
GAMG:  Solving for p, Initial residual = 0.0126668, Final residual = 0.000618397, No Iterations 5
time step continuity errors : sum local = 8.11662e-06, global = -1.35354e-16, cumulative = -3.3727e-16
smoothSolver:  Solving for nuTilda, Initial residual = 0.000897848, Final residual = 5.60753e-05, No Iterations 2
ExecutionTime = 2.38 s  ClockTime = 2 s

Time = 132

smoothSolver:  Solving for Ux, Initial residual = 0.00262029, Final residual = 0.000156882, No Iterations 2
smoothSolver:  Solving for Uy, Initial residual = 0.00343821, Final residual = 0.000234923, No Iterations 2
GAMG:  Solving for p, Initial residual = 0.0124636, Final residual = 0.000601003, No Iterations 5
time step continuity errors : sum local = 7.8617e-06, global = 2.02527e-16, cumulative = -1.34743e-16
smoothSolver:  Solving for nuTilda, Initial residual = 0.000875513, Final residual = 5.45488e-05, No Iterations 2
ExecutionTime = 2.4 s  ClockTime = 2 s

Time = 133

smoothSolver:  Solving for Ux, Initial residual = 0.00257284, Final residual = 0.000151915, No Iterations 2
smoothSolver:  Solving for Uy, Initial residual = 0.00337254, Final residual = 0.000230303, No Iterations 2
GAMG:  Solving for p, Initial residual = 0.0122999, Final residual = 0.000594292, No Iterations 5
time step continuity errors : sum local = 7.76547e-06, global = -2.71495e-16, cumulative = -4.06238e-16
smoothSolver:  Solving for nuTilda, Initial residual = 0.00085316, Final residual = 5.30769e-05, No Iterations 2
[...]
smoothSolver:  Solving for Uy, Initial residual = 1.00887e-06, Final residual = 7.3739e-08, No Iterations 2
GAMG:  Solving for p, Initial residual = 0.000674779, Final residual = 6.52172e-05, No Iterations 1
time step continuity errors : sum local = 8.28753e-07, global = -4.16832e-17, cumulative = 7.01615e-15
smoothSolver:  Solving for nuTilda, Initial residual = 3.75696e-07, Final residual = 9.594e-09, No Iterations 2
ExecutionTime = 38.99 s  ClockTime = 39 s

Time = 2468

smoothSolver:  Solving for Ux, Initial residual = 8.22394e-07, Final residual = 2.67303e-08, No Iterations 2
smoothSolver:  Solving for Uy, Initial residual = 1.03458e-06, Final residual = 7.49107e-08, No Iterations 2
GAMG:  Solving for p, Initial residual = 0.000668671, Final residual = 6.48206e-05, No Iterations 1
time step continuity errors : sum local = 8.21755e-07, global = 5.55548e-17, cumulative = 7.07171e-15
smoothSolver:  Solving for nuTilda, Initial residual = 6.26718e-07, Final residual = 9.55519e-09, No Iterations 2
ExecutionTime = 39 s  ClockTime = 39 s

Time = 2469

smoothSolver:  Solving for Ux, Initial residual = 7.83266e-07, Final residual = 2.57687e-08, No Iterations 2
smoothSolver:  Solving for Uy, Initial residual = 1.00866e-06, Final residual = 7.37168e-08, No Iterations 2
GAMG:  Solving for p, Initial residual = 0.000674757, Final residual = 6.52312e-05, No Iterations 1
time step continuity errors : sum local = 8.2893e-07, global = 4.26784e-16, cumulative = 7.49849e-15
smoothSolver:  Solving for nuTilda, Initial residual = 3.75662e-07, Final residual = 9.59113e-09, No Iterations 2
ExecutionTime = 39.01 s  ClockTime = 39 s

Time = 2470

smoothSolver:  Solving for Ux, Initial residual = 8.2313e-07, Final residual = 2.67604e-08, No Iterations 2
smoothSolver:  Solving for Uy, Initial residual = 1.03548e-06, Final residual = 7.50383e-08, No Iterations 2
GAMG:  Solving for p, Initial residual = 0.000668631, Final residual = 6.4801e-05, No Iterations 1
time step continuity errors : sum local = 8.21506e-07, global = 2.99041e-16, cumulative = 7.79753e-15
smoothSolver:  Solving for nuTilda, Initial residual = 6.26689e-07, Final residual = 9.55352e-09, No Iterations 2
ExecutionTime = 39.03 s  ClockTime = 39 s

Time = 2471

smoothSolver:  Solving for Ux, Initial residual = 7.82737e-07, Final residual = 2.57608e-08, No Iterations 2
smoothSolver:  Solving for Uy, Initial residual = 1.00915e-06, Final residual = 7.36633e-08, No Iterations 2
GAMG:  Solving for p, Initial residual = 0.000674728, Final residual = 6.51676e-05, No Iterations 1
time step continuity errors : sum local = 8.28127e-07, global = -2.56646e-16, cumulative = 7.54089e-15
smoothSolver:  Solving for nuTilda, Initial residual = 3.75631e-07, Final residual = 9.58973e-09, No Iterations 2
ExecutionTime = 39.04 s  ClockTime = 39 s

Time = 2472

smoothSolver:  Solving for Ux, Initial residual = 8.23357e-07, Final residual = 2.67569e-08, No Iterations 2
smoothSolver:  Solving for Uy, Initial residual = 1.0354e-06, Final residual = 7.50243e-08, No Iterations 2
GAMG:  Solving for p, Initial residual = 0.000668662, Final residual = 6.48503e-05, No Iterations 1
time step continuity errors : sum local = 8.2213e-07, global = -3.05408e-17, cumulative = 7.51035e-15
smoothSolver:  Solving for nuTilda, Initial residual = 6.26664e-07, Final residual = 9.55277e-09, No Iterations 2
ExecutionTime = 39.06 s  ClockTime = 39 s

Time = 2473

smoothSolver:  Solving for Ux, Initial residual = 7.83077e-07, Final residual = 2.5764e-08, No Iterations 2
smoothSolver:  Solving for Uy, Initial residual = 1.0085e-06, Final residual = 7.36106e-08, No Iterations 2
GAMG:  Solving for p, Initial residual = 0.000674812, Final residual = 6.51659e-05, No Iterations 1
time step continuity errors : sum local = 8.28105e-07, global = -3.33226e-16, cumulative = 7.17712e-15
smoothSolver:  Solving for nuTilda, Initial residual = 3.75608e-07, Final residual = 9.58881e-09, No Iterations 2
ExecutionTime = 39.07 s  ClockTime = 39 s

Time = 2474

smoothSolver:  Solving for Ux, Initial residual = 8.22872e-07, Final residual = 2.6731e-08, No Iterations 2
smoothSolver:  Solving for Uy, Initial residual = 1.0343e-06, Final residual = 7.4929e-08, No Iterations 2
GAMG:  Solving for p, Initial residual = 0.000668703, Final residual = 6.49142e-05, No Iterations 1
time step continuity errors : sum local = 8.22938e-07, global = 1.36963e-16, cumulative = 7.31408e-15
smoothSolver:  Solving for nuTilda, Initial residual = 6.26642e-07, Final residual = 9.55138e-09, No Iterations 2
ExecutionTime = 39.09 s  ClockTime = 39 s

Time = 2475

smoothSolver:  Solving for Ux, Initial residual = 7.83716e-07, Final residual = 2.57878e-08, No Iterations 2
smoothSolver:  Solving for Uy, Initial residual = 1.00895e-06, Final residual = 7.37167e-08, No Iterations 2
GAMG:  Solving for p, Initial residual = 0.000674793, Final residual = 6.51489e-05, No Iterations 1
time step continuity errors : sum local = 8.2789e-07, global = 3.27211e-16, cumulative = 7.6413e-15
smoothSolver:  Solving for nuTilda, Initial residual = 3.75593e-07, Final residual = 9.58823e-09, No Iterations 2
ExecutionTime = 39.1 s  ClockTime = 39 s

Time = 2476

smoothSolver:  Solving for Ux, Initial residual = 8.22031e-07, Final residual = 2.67217e-08, No Iterations 2
smoothSolver:  Solving for Uy, Initial residual = 1.03472e-06, Final residual = 7.4889e-08, No Iterations 2
GAMG:  Solving for p, Initial residual = 0.000668644, Final residual = 6.4871e-05, No Iterations 1
time step continuity errors : sum local = 8.22393e-07, global = -9.99049e-17, cumulative = 7.54139e-15
smoothSolver:  Solving for nuTilda, Initial residual = 6.26625e-07, Final residual = 9.55085e-09, No Iterations 2
ExecutionTime = 39.12 s  ClockTime = 39 s

Time = 2477

smoothSolver:  Solving for Ux, Initial residual = 7.84165e-07, Final residual = 2.58026e-08, No Iterations 2
smoothSolver:  Solving for Uy, Initial residual = 1.00986e-06, Final residual = 7.37963e-08, No Iterations 2
GAMG:  Solving for p, Initial residual = 0.000674786, Final residual = 6.51549e-05, No Iterations 1
time step continuity errors : sum local = 8.27965e-07, global = 2.19848e-16, cumulative = 7.76124e-15
smoothSolver:  Solving for nuTilda, Initial residual = 3.75579e-07, Final residual = 9.58849e-09, No Iterations 2
ExecutionTime = 39.13 s  ClockTime = 39 s

Time = 2478

smoothSolver:  Solving for Ux, Initial residual = 8.21979e-07, Final residual = 2.67136e-08, No Iterations 2
smoothSolver:  Solving for Uy, Initial residual = 1.0347e-06, Final residual = 7.48528e-08, No Iterations 2
GAMG:  Solving for p, Initial residual = 0.000668696, Final residual = 6.48347e-05, No Iterations 1
time step continuity errors : sum local = 8.21934e-07, global = -3.82123e-16, cumulative = 7.37912e-15
smoothSolver:  Solving for nuTilda, Initial residual = 6.26606e-07, Final residual = 9.5508e-09, No Iterations 2
ExecutionTime = 39.14 s  ClockTime = 39 s

Time = 2479

smoothSolver:  Solving for Ux, Initial residual = 7.84131e-07, Final residual = 2.57837e-08, No Iterations 2
smoothSolver:  Solving for Uy, Initial residual = 1.00891e-06, Final residual = 7.37411e-08, No Iterations 2
GAMG:  Solving for p, Initial residual = 0.00067485, Final residual = 6.52381e-05, No Iterations 1
time step continuity errors : sum local = 8.29018e-07, global = 3.061e-16, cumulative = 7.68522e-15
smoothSolver:  Solving for nuTilda, Initial residual = 3.75556e-07, Final residual = 9.58826e-09, No Iterations 2
ExecutionTime = 39.16 s  ClockTime = 39 s

Time = 2480

smoothSolver:  Solving for Ux, Initial residual = 8.2271e-07, Final residual = 2.67318e-08, No Iterations 2
smoothSolver:  Solving for Uy, Initial residual = 1.03472e-06, Final residual = 7.49241e-08, No Iterations 2
GAMG:  Solving for p, Initial residual = 0.000668732, Final residual = 6.48426e-05, No Iterations 1
time step continuity errors : sum local = 8.22033e-07, global = -5.10244e-17, cumulative = 7.63419e-15
smoothSolver:  Solving for nuTilda, Initial residual = 6.26584e-07, Final residual = 9.55043e-09, No Iterations 2
ExecutionTime = 39.17 s  ClockTime = 39 s

Time = 2481

smoothSolver:  Solving for Ux, Initial residual = 7.83539e-07, Final residual = 2.57704e-08, No Iterations 2
smoothSolver:  Solving for Uy, Initial residual = 1.00858e-06, Final residual = 7.36853e-08, No Iterations 2
GAMG:  Solving for p, Initial residual = 0.000674805, Final residual = 6.52305e-05, No Iterations 1
time step continuity errors : sum local = 8.28922e-07, global = -3.83568e-17, cumulative = 7.59584e-15
smoothSolver:  Solving for nuTilda, Initial residual = 3.75531e-07, Final residual = 9.58745e-09, No Iterations 2
ExecutionTime = 39.19 s  ClockTime = 39 s

Time = 2482

smoothSolver:  Solving for Ux, Initial residual = 8.23298e-07, Final residual = 2.67597e-08, No Iterations 2
smoothSolver:  Solving for Uy, Initial residual = 1.03583e-06, Final residual = 7.50393e-08, No Iterations 2
GAMG:  Solving for p, Initial residual = 0.000668686, Final residual = 6.48119e-05, No Iterations 1
time step continuity errors : sum local = 8.21645e-07, global = 4.62472e-16, cumulative = 8.05831e-15
smoothSolver:  Solving for nuTilda, Initial residual = 6.26566e-07, Final residual = 9.55055e-09, No Iterations 2
ExecutionTime = 39.2 s  ClockTime = 39 s

Time = 2483

smoothSolver:  Solving for Ux, Initial residual = 7.83039e-07, Final residual = 2.57596e-08, No Iterations 2
smoothSolver:  Solving for Uy, Initial residual = 1.00897e-06, Final residual = 7.36176e-08, No Iterations 2
GAMG:  Solving for p, Initial residual = 0.000674805, Final residual = 6.5183e-05, No Iterations 1
time step continuity errors : sum local = 8.28321e-07, global = -5.04598e-16, cumulative = 7.55371e-15
smoothSolver:  Solving for nuTilda, Initial residual = 3.75516e-07, Final residual = 9.58809e-09, No Iterations 2
ExecutionTime = 39.22 s  ClockTime = 39 s

Time = 2484

smoothSolver:  Solving for Ux, Initial residual = 8.23387e-07, Final residual = 2.67435e-08, No Iterations 2
smoothSolver:  Solving for Uy, Initial residual = 1.03547e-06, Final residual = 7.50086e-08, No Iterations 2
GAMG:  Solving for p, Initial residual = 0.000668751, Final residual = 6.48789e-05, No Iterations 1
time step continuity errors : sum local = 8.22493e-07, global = 1.25974e-16, cumulative = 7.67968e-15
smoothSolver:  Solving for nuTilda, Initial residual = 6.26552e-07, Final residual = 9.55139e-09, No Iterations 2
ExecutionTime = 39.24 s  ClockTime = 39 s

Time = 2485

smoothSolver:  Solving for Ux, Initial residual = 7.83515e-07, Final residual = 2.57648e-08, No Iterations 2
smoothSolver:  Solving for Uy, Initial residual = 1.00839e-06, Final residual = 7.36046e-08, No Iterations 2
GAMG:  Solving for p, Initial residual = 0.000674871, Final residual = 6.51898e-05, No Iterations 1
time step continuity errors : sum local = 8.28407e-07, global = 4.02443e-16, cumulative = 8.08213e-15
smoothSolver:  Solving for nuTilda, Initial residual = 3.75503e-07, Final residual = 9.58881e-09, No Iterations 2
ExecutionTime = 39.25 s  ClockTime = 39 s

Time = 2486

smoothSolver:  Solving for Ux, Initial residual = 8.2293e-07, Final residual = 2.67257e-08, No Iterations 2
smoothSolver:  Solving for Uy, Initial residual = 1.03459e-06, Final residual = 7.49533e-08, No Iterations 2
GAMG:  Solving for p, Initial residual = 0.000668759, Final residual = 6.49252e-05, No Iterations 1
time step continuity errors : sum local = 8.23079e-07, global = -7.96606e-17, cumulative = 8.00247e-15
smoothSolver:  Solving for nuTilda, Initial residual = 6.26536e-07, Final residual = 9.55149e-09, No Iterations 2
ExecutionTime = 39.27 s  ClockTime = 39 s

Time = 2487

smoothSolver:  Solving for Ux, Initial residual = 7.84239e-07, Final residual = 2.5798e-08, No Iterations 2
smoothSolver:  Solving for Uy, Initial residual = 1.00909e-06, Final residual = 7.37255e-08, No Iterations 2
GAMG:  Solving for p, Initial residual = 0.000674846, Final residual = 6.51566e-05, No Iterations 1
time step continuity errors : sum local = 8.27987e-07, global = -1.89105e-16, cumulative = 7.81336e-15
smoothSolver:  Solving for nuTilda, Initial residual = 3.75496e-07, Final residual = 9.58973e-09, No Iterations 2
ExecutionTime = 39.28 s  ClockTime = 39 s

Time = 2488

smoothSolver:  Solving for Ux, Initial residual = 8.223e-07, Final residual = 2.67232e-08, No Iterations 2
smoothSolver:  Solving for Uy, Initial residual = 1.03514e-06, Final residual = 7.49089e-08, No Iterations 2
GAMG:  Solving for p, Initial residual = 0.0006687, Final residual = 6.48764e-05, No Iterations 1
time step continuity errors : sum local = 8.22461e-07, global = -2.53124e-16, cumulative = 7.56024e-15
smoothSolver:  Solving for nuTilda, Initial residual = 6.26531e-07, Final residual = 9.55244e-09, No Iterations 2
ExecutionTime = 39.3 s  ClockTime = 39 s

Time = 2489

smoothSolver:  Solving for Ux, Initial residual = 7.84572e-07, Final residual = 2.57978e-08, No Iterations 2
smoothSolver:  Solving for Uy, Initial residual = 1.00969e-06, Final residual = 7.37796e-08, No Iterations 2
GAMG:  Solving for p, Initial residual = 0.000674863, Final residual = 6.51749e-05, No Iterations 1
time step continuity errors : sum local = 8.28218e-07, global = -1.54332e-16, cumulative = 7.40591e-15
smoothSolver:  Solving for nuTilda, Initial residual = 3.75496e-07, Final residual = 9.59098e-09, No Iterations 2
ExecutionTime = 39.31 s  ClockTime = 39 s

Time = 2490

smoothSolver:  Solving for Ux, Initial residual = 8.22387e-07, Final residual = 2.67105e-08, No Iterations 2
smoothSolver:  Solving for Uy, Initial residual = 1.03485e-06, Final residual = 7.48543e-08, No Iterations 2
GAMG:  Solving for p, Initial residual = 0.000668778, Final residual = 6.48599e-05, No Iterations 1
time step continuity errors : sum local = 8.22252e-07, global = 4.25194e-16, cumulative = 7.8311e-15
smoothSolver:  Solving for nuTilda, Initial residual = 6.26528e-07, Final residual = 9.55327e-09, No Iterations 2
ExecutionTime = 39.32 s  ClockTime = 39 s

Time = 2491

smoothSolver:  Solving for Ux, Initial residual = 7.84394e-07, Final residual = 2.57732e-08, No Iterations 2
smoothSolver:  Solving for Uy, Initial residual = 1.00849e-06, Final residual = 7.37052e-08, No Iterations 2
GAMG:  Solving for p, Initial residual = 0.000674918, Final residual = 6.52533e-05, No Iterations 1
time step continuity errors : sum local = 8.29211e-07, global = -2.47602e-17, cumulative = 7.80634e-15
smoothSolver:  Solving for nuTilda, Initial residual = 3.75483e-07, Final residual = 9.59113e-09, No Iterations 2
ExecutionTime = 39.34 s  ClockTime = 39 s

Time = 2492

smoothSolver:  Solving for Ux, Initial residual = 8.22961e-07, Final residual = 2.67257e-08, No Iterations 2
smoothSolver:  Solving for Uy, Initial residual = 1.03494e-06, Final residual = 7.49233e-08, No Iterations 2
GAMG:  Solving for p, Initial residual = 0.000668799, Final residual = 6.48596e-05, No Iterations 1
time step continuity errors : sum local = 8.22246e-07, global = -3.77368e-16, cumulative = 7.42897e-15
smoothSolver:  Solving for nuTilda, Initial residual = 6.26513e-07, Final residual = 9.55366e-09, No Iterations 2
ExecutionTime = 39.35 s  ClockTime = 39 s

Time = 2493

smoothSolver:  Solving for Ux, Initial residual = 7.83683e-07, Final residual = 2.5764e-08, No Iterations 2
smoothSolver:  Solving for Uy, Initial residual = 1.00856e-06, Final residual = 7.36477e-08, No Iterations 2
GAMG:  Solving for p, Initial residual = 0.000674865, Final residual = 6.52368e-05, No Iterations 1
time step continuity errors : sum local = 8.29003e-07, global = -3.36645e-16, cumulative = 7.09233e-15
smoothSolver:  Solving for nuTilda, Initial residual = 3.75463e-07, Final residual = 9.59097e-09, No Iterations 2
ExecutionTime = 39.36 s  ClockTime = 39 s

Time = 2494

smoothSolver:  Solving for Ux, Initial residual = 8.23421e-07, Final residual = 2.6742e-08, No Iterations 2
smoothSolver:  Solving for Uy, Initial residual = 1.03604e-06, Final residual = 7.50332e-08, No Iterations 2
GAMG:  Solving for p, Initial residual = 0.000668767, Final residual = 6.48249e-05, No Iterations 1
time step continuity errors : sum local = 8.21808e-07, global = 3.52775e-16, cumulative = 7.4451e-15
smoothSolver:  Solving for nuTilda, Initial residual = 6.26503e-07, Final residual = 9.55461e-09, No Iterations 2
ExecutionTime = 39.38 s  ClockTime = 39 s

Time = 2495

smoothSolver:  Solving for Ux, Initial residual = 7.83461e-07, Final residual = 2.57495e-08, No Iterations 2
smoothSolver:  Solving for Uy, Initial residual = 1.00895e-06, Final residual = 7.35891e-08, No Iterations 2
GAMG:  Solving for p, Initial residual = 0.000674881, Final residual = 6.51979e-05, No Iterations 1
time step continuity errors : sum local = 8.28512e-07, global = -1.62547e-16, cumulative = 7.28255e-15
smoothSolver:  Solving for nuTilda, Initial residual = 3.75456e-07, Final residual = 9.59204e-09, No Iterations 2
ExecutionTime = 39.39 s  ClockTime = 39 s

Time = 2496

smoothSolver:  Solving for Ux, Initial residual = 8.23652e-07, Final residual = 2.67245e-08, No Iterations 2
smoothSolver:  Solving for Uy, Initial residual = 1.03533e-06, Final residual = 7.49967e-08, No Iterations 2
GAMG:  Solving for p, Initial residual = 0.000668835, Final residual = 6.48946e-05, No Iterations 1
time step continuity errors : sum local = 8.22689e-07, global = 3.5693e-18, cumulative = 7.28612e-15
smoothSolver:  Solving for nuTilda, Initial residual = 6.26503e-07, Final residual = 9.55609e-09, No Iterations 2
ExecutionTime = 39.41 s  ClockTime = 39 s

Time = 2497

smoothSolver:  Solving for Ux, Initial residual = 7.84053e-07, Final residual = 2.57655e-08, No Iterations 2
smoothSolver:  Solving for Uy, Initial residual = 1.00862e-06, Final residual = 7.36107e-08, No Iterations 2
GAMG:  Solving for p, Initial residual = 0.000674937, Final residual = 6.52062e-05, No Iterations 1
time step continuity errors : sum local = 8.28617e-07, global = -2.65447e-16, cumulative = 7.02068e-15
smoothSolver:  Solving for nuTilda, Initial residual = 3.75461e-07, Final residual = 9.59328e-09, No Iterations 2
ExecutionTime = 39.42 s  ClockTime = 39 s

Time = 2498

smoothSolver:  Solving for Ux, Initial residual = 8.2317e-07, Final residual = 2.67188e-08, No Iterations 2
smoothSolver:  Solving for Uy, Initial residual = 1.03464e-06, Final residual = 7.49498e-08, No Iterations 2
GAMG:  Solving for p, Initial residual = 0.000668822, Final residual = 6.49284e-05, No Iterations 1
time step continuity errors : sum local = 8.23117e-07, global = 6.55225e-16, cumulative = 7.6759e-15
smoothSolver:  Solving for nuTilda, Initial residual = 6.26505e-07, Final residual = 9.55662e-09, No Iterations 2
ExecutionTime = 39.44 s  ClockTime = 39 s

Time = 2499

smoothSolver:  Solving for Ux, Initial residual = 7.84422e-07, Final residual = 2.57942e-08, No Iterations 2
smoothSolver:  Solving for Uy, Initial residual = 1.00948e-06, Final residual = 7.373e-08, No Iterations 2
GAMG:  Solving for p, Initial residual = 0.000674923, Final residual = 6.51761e-05, No Iterations 1
time step continuity errors : sum local = 8.28236e-07, global = -2.83381e-16, cumulative = 7.39252e-15
smoothSolver:  Solving for nuTilda, Initial residual = 3.75468e-07, Final residual = 9.59458e-09, No Iterations 2
ExecutionTime = 39.46 s  ClockTime = 39 s

Time = 2500

smoothSolver:  Solving for Ux, Initial residual = 8.22328e-07, Final residual = 2.67059e-08, No Iterations 2
smoothSolver:  Solving for Uy, Initial residual = 1.03537e-06, Final residual = 7.48986e-08, No Iterations 2
GAMG:  Solving for p, Initial residual = 0.000668795, Final residual = 6.48936e-05, No Iterations 1
time step continuity errors : sum local = 8.22677e-07, global = -5.06012e-16, cumulative = 6.88651e-15
smoothSolver:  Solving for nuTilda, Initial residual = 6.26509e-07, Final residual = 9.55796e-09, No Iterations 2
ExecutionTime = 39.5 s  ClockTime = 39 s

End

