/*---------------------------------------------------------------------------*\
| =========                 |                                                 |
| \\      /  F ield         | OpenFOAM: The Open Source CFD Toolbox           |
|  \\    /   O peration     | Version:  5.x                                   |
|   \\  /    A nd           | Web:      www.OpenFOAM.org                      |
|    \\/     M anipulation  |                                                 |
\*---------------------------------------------------------------------------*/
Build  : 5.x-68e8507efb72
Exec   : simpleFoam
Date   : Jan 23 2022
Time   : 14:51:13
Host   : "Desktop-PC"
PID    : 10410
I/O    : uncollated
Case   : /home/emilio/code/flow-separation-prediction/openfoam/run/Airfold2D_full
nProcs : 1
sigFpe : Enabling floating point exception trapping (FOAM_SIGFPE).
fileModificationChecking : Monitoring run-time modified files using timeStampMaster (fileModificationSkew 10)
allowSystemOperations : Allowing user-supplied system call operations

// * * * * * * * * * * * * * * * * * * * * * * * * * * * * * * * * * * * * * //
Create time

Create mesh for time = 0


SIMPLE: convergence criteria
    field p	 tolerance 1e-05
    field U	 tolerance 1e-05
    field nuTilda	 tolerance 1e-05

Reading field p

Reading field U

Reading/calculating face flux field phi

Selecting incompressible transport model Newtonian
Selecting turbulence model type RAS
Selecting RAS turbulence model SpalartAllmaras
Selecting patchDistMethod meshWave
RAS
{
    RASModel        SpalartAllmaras;
    turbulence      on;
    printCoeffs     on;
    sigmaNut        0.66666;
    kappa           0.41;
    Cb1             0.1355;
    Cb2             0.622;
    Cw2             0.3;
    Cw3             2;
    Cv1             7.1;
    Cs              0.3;
}

No MRF models present

No finite volume options present


Starting time loop

Time = 1

smoothSolver:  Solving for Ux, Initial residual = 1, Final residual = 0.0285552, No Iterations 2
smoothSolver:  Solving for Uy, Initial residual = 1, Final residual = 0.0712185, No Iterations 2
GAMG:  Solving for p, Initial residual = 1, Final residual = 0.0406138, No Iterations 8
time step continuity errors : sum local = 0.00112202, global = -1.1328e-16, cumulative = -1.1328e-16
smoothSolver:  Solving for nuTilda, Initial residual = 1, Final residual = 0.0182376, No Iterations 2
ExecutionTime = 0.1 s  ClockTime = 0 s

Time = 2

smoothSolver:  Solving for Ux, Initial residual = 0.601426, Final residual = 0.0147041, No Iterations 4
smoothSolver:  Solving for Uy, Initial residual = 0.405487, Final residual = 0.0151568, No Iterations 4
GAMG:  Solving for p, Initial residual = 0.915252, Final residual = 0.0525269, No Iterations 4
time step continuity errors : sum local = 0.0049298, global = 2.68577e-16, cumulative = 1.55297e-16
smoothSolver:  Solving for nuTilda, Initial residual = 0.111115, Final residual = 0.00578496, No Iterations 2
ExecutionTime = 0.12 s  ClockTime = 0 s

Time = 3

smoothSolver:  Solving for Ux, Initial residual = 0.223353, Final residual = 0.00481787, No Iterations 4
smoothSolver:  Solving for Uy, Initial residual = 0.087797, Final residual = 0.00261004, No Iterations 4
GAMG:  Solving for p, Initial residual = 0.863628, Final residual = 0.0612933, No Iterations 5
time step continuity errors : sum local = 0.00907739, global = -2.37669e-16, cumulative = -8.23719e-17
smoothSolver:  Solving for nuTilda, Initial residual = 0.0318578, Final residual = 0.000489169, No Iterations 4
ExecutionTime = 0.14 s  ClockTime = 0 s

Time = 4

smoothSolver:  Solving for Ux, Initial residual = 0.069457, Final residual = 0.00147075, No Iterations 4
smoothSolver:  Solving for Uy, Initial residual = 0.0267797, Final residual = 0.000696595, No Iterations 4
GAMG:  Solving for p, Initial residual = 0.865655, Final residual = 0.0638664, No Iterations 4
time step continuity errors : sum local = 0.00863021, global = -1.33195e-16, cumulative = -2.15567e-16
smoothSolver:  Solving for nuTilda, Initial residual = 0.0155681, Final residual = 0.000332765, No Iterations 4
ExecutionTime = 0.15 s  ClockTime = 0 s

Time = 5

smoothSolver:  Solving for Ux, Initial residual = 0.144629, Final residual = 0.00303204, No Iterations 4
smoothSolver:  Solving for Uy, Initial residual = 0.0516239, Final residual = 0.00152472, No Iterations 4
GAMG:  Solving for p, Initial residual = 0.855201, Final residual = 0.0535582, No Iterations 4
time step continuity errors : sum local = 0.00748599, global = 2.50317e-16, cumulative = 3.47504e-17
smoothSolver:  Solving for nuTilda, Initial residual = 0.0117916, Final residual = 0.000288304, No Iterations 4
ExecutionTime = 0.17 s  ClockTime = 0 s

Time = 6

smoothSolver:  Solving for Ux, Initial residual = 0.206862, Final residual = 0.00414559, No Iterations 4
smoothSolver:  Solving for Uy, Initial residual = 0.0940396, Final residual = 0.0022965, No Iterations 4
GAMG:  Solving for p, Initial residual = 0.826871, Final residual = 0.0701027, No Iterations 4
time step continuity errors : sum local = 0.00984173, global = 9.14936e-16, cumulative = 9.49686e-16
smoothSolver:  Solving for nuTilda, Initial residual = 0.0100336, Final residual = 0.000241738, No Iterations 4
ExecutionTime = 0.19 s  ClockTime = 0 s

Time = 7

smoothSolver:  Solving for Ux, Initial residual = 0.151328, Final residual = 0.0028711, No Iterations 4
smoothSolver:  Solving for Uy, Initial residual = 0.106596, Final residual = 0.00217021, No Iterations 4
GAMG:  Solving for p, Initial residual = 0.808981, Final residual = 0.0591805, No Iterations 4
time step continuity errors : sum local = 0.0069153, global = -4.33524e-17, cumulative = 9.06334e-16
smoothSolver:  Solving for nuTilda, Initial residual = 0.00835752, Final residual = 0.000188348, No Iterations 4
bounding nuTilda, min: -0.00249312 max: 0.14339 average: 0.129837
ExecutionTime = 0.21 s  ClockTime = 0 s

Time = 8

smoothSolver:  Solving for Ux, Initial residual = 0.121226, Final residual = 0.00215563, No Iterations 4
smoothSolver:  Solving for Uy, Initial residual = 0.065665, Final residual = 0.0013838, No Iterations 4
GAMG:  Solving for p, Initial residual = 0.880385, Final residual = 0.0505948, No Iterations 4
time step continuity errors : sum local = 0.00599349, global = 3.3522e-17, cumulative = 9.39856e-16
smoothSolver:  Solving for nuTilda, Initial residual = 0.00685329, Final residual = 0.00014647, No Iterations 4
ExecutionTime = 0.23 s  ClockTime = 0 s

Time = 9

smoothSolver:  Solving for Ux, Initial residual = 0.10819, Final residual = 0.00185962, No Iterations 4
smoothSolver:  Solving for Uy, Initial residual = 0.0438744, Final residual = 0.000922239, No Iterations 4
GAMG:  Solving for p, Initial residual = 0.811379, Final residual = 0.077696, No Iterations 4
time step continuity errors : sum local = 0.00916836, global = 5.85426e-16, cumulative = 1.52528e-15
smoothSolver:  Solving for nuTilda, Initial residual = 0.00582848, Final residual = 0.000123777, No Iterations 4
bounding nuTilda, min: -0.00101566 max: 0.144055 average: 0.12885
ExecutionTime = 0.25 s  ClockTime = 0 s

Time = 10

smoothSolver:  Solving for Ux, Initial residual = 0.0718001, Final residual = 0.00125145, No Iterations 4
smoothSolver:  Solving for Uy, Initial residual = 0.0325866, Final residual = 0.000574336, No Iterations 4
GAMG:  Solving for p, Initial residual = 0.771983, Final residual = 0.0560751, No Iterations 4
time step continuity errors : sum local = 0.00585379, global = -1.16966e-16, cumulative = 1.40832e-15
smoothSolver:  Solving for nuTilda, Initial residual = 0.00524386, Final residual = 0.000111362, No Iterations 4
ExecutionTime = 0.27 s  ClockTime = 0 s

Time = 11

smoothSolver:  Solving for Ux, Initial residual = 0.0649074, Final residual = 0.00623145, No Iterations 2
smoothSolver:  Solving for Uy, Initial residual = 0.03071, Final residual = 0.000576788, No Iterations 4
GAMG:  Solving for p, Initial residual = 0.802196, Final residual = 0.0535058, No Iterations 4
time step continuity errors : sum local = 0.00548516, global = -3.91245e-16, cumulative = 1.01707e-15
smoothSolver:  Solving for nuTilda, Initial residual = 0.00494098, Final residual = 0.000102938, No Iterations 4
bounding nuTilda, min: -0.00107555 max: 0.145529 average: 0.128162
ExecutionTime = 0.29 s  ClockTime = 0 s

Time = 12

smoothSolver:  Solving for Ux, Initial residual = 0.0661467, Final residual = 0.00660382, No Iterations 2
smoothSolver:  Solving for Uy, Initial residual = 0.0308717, Final residual = 0.00068146, No Iterations 4
GAMG:  Solving for p, Initial residual = 0.768992, Final residual = 0.0684138, No Iterations 4
time step continuity errors : sum local = 0.00668445, global = 1.27456e-16, cumulative = 1.14453e-15
smoothSolver:  Solving for nuTilda, Initial residual = 0.00479638, Final residual = 9.54281e-05, No Iterations 4
bounding nuTilda, min: -0.000998755 max: 0.146278 average: 0.127867
ExecutionTime = 0.31 s  ClockTime = 0 s

Time = 13

smoothSolver:  Solving for Ux, Initial residual = 0.0483916, Final residual = 0.000790758, No Iterations 4
smoothSolver:  Solving for Uy, Initial residual = 0.0301057, Final residual = 0.000547158, No Iterations 4
GAMG:  Solving for p, Initial residual = 0.746488, Final residual = 0.0584356, No Iterations 4
time step continuity errors : sum local = 0.00511248, global = -4.94555e-17, cumulative = 1.09507e-15
smoothSolver:  Solving for nuTilda, Initial residual = 0.00462386, Final residual = 8.72308e-05, No Iterations 4
bounding nuTilda, min: -0.00121281 max: 0.146868 average: 0.127601
ExecutionTime = 0.32 s  ClockTime = 0 s

Time = 14

smoothSolver:  Solving for Ux, Initial residual = 0.0448505, Final residual = 0.00409454, No Iterations 2
smoothSolver:  Solving for Uy, Initial residual = 0.027458, Final residual = 0.000481828, No Iterations 4
GAMG:  Solving for p, Initial residual = 0.781147, Final residual = 0.0508427, No Iterations 4
time step continuity errors : sum local = 0.00427535, global = 1.94017e-16, cumulative = 1.28909e-15
smoothSolver:  Solving for nuTilda, Initial residual = 0.00443013, Final residual = 8.12149e-05, No Iterations 4
bounding nuTilda, min: -0.00151308 max: 0.14736 average: 0.127358
ExecutionTime = 0.34 s  ClockTime = 0 s

Time = 15

smoothSolver:  Solving for Ux, Initial residual = 0.0398691, Final residual = 0.00354811, No Iterations 2
smoothSolver:  Solving for Uy, Initial residual = 0.0240754, Final residual = 0.00042018, No Iterations 4
GAMG:  Solving for p, Initial residual = 0.765817, Final residual = 0.0461837, No Iterations 4
time step continuity errors : sum local = 0.00370566, global = -3.34888e-16, cumulative = 9.542e-16
smoothSolver:  Solving for nuTilda, Initial residual = 0.00424656, Final residual = 7.66678e-05, No Iterations 4
bounding nuTilda, min: -0.000835036 max: 0.147835 average: 0.127138
ExecutionTime = 0.36 s  ClockTime = 0 s

Time = 16

smoothSolver:  Solving for Ux, Initial residual = 0.0287033, Final residual = 0.00267229, No Iterations 2
smoothSolver:  Solving for Uy, Initial residual = 0.020283, Final residual = 0.000349064, No Iterations 4
GAMG:  Solving for p, Initial residual = 0.736685, Final residual = 0.0301827, No Iterations 4
time step continuity errors : sum local = 0.00219188, global = -2.87374e-16, cumulative = 6.66826e-16
smoothSolver:  Solving for nuTilda, Initial residual = 0.00409051, Final residual = 7.28686e-05, No Iterations 4
bounding nuTilda, min: -0.000396007 max: 0.148348 average: 0.126937
ExecutionTime = 0.38 s  ClockTime = 0 s

Time = 17

smoothSolver:  Solving for Ux, Initial residual = 0.0259499, Final residual = 0.00237805, No Iterations 2
smoothSolver:  Solving for Uy, Initial residual = 0.0184611, Final residual = 0.000329618, No Iterations 4
GAMG:  Solving for p, Initial residual = 0.743085, Final residual = 0.0498975, No Iterations 4
time step continuity errors : sum local = 0.00347094, global = -3.82447e-17, cumulative = 6.28582e-16
smoothSolver:  Solving for nuTilda, Initial residual = 0.00396307, Final residual = 6.98363e-05, No Iterations 4
bounding nuTilda, min: -0.000534246 max: 0.149002 average: 0.12676
ExecutionTime = 0.4 s  ClockTime = 0 s

Time = 18

smoothSolver:  Solving for Ux, Initial residual = 0.0246825, Final residual = 0.00241285, No Iterations 2
smoothSolver:  Solving for Uy, Initial residual = 0.0168418, Final residual = 0.000312259, No Iterations 4
GAMG:  Solving for p, Initial residual = 0.732354, Final residual = 0.021999, No Iterations 4
time step continuity errors : sum local = 0.00143374, global = -3.57441e-17, cumulative = 5.92838e-16
smoothSolver:  Solving for nuTilda, Initial residual = 0.00387822, Final residual = 6.70862e-05, No Iterations 4
bounding nuTilda, min: -0.000322462 max: 0.149691 average: 0.126604
ExecutionTime = 0.41 s  ClockTime = 0 s

Time = 19

smoothSolver:  Solving for Ux, Initial residual = 0.0190472, Final residual = 0.00190169, No Iterations 2
smoothSolver:  Solving for Uy, Initial residual = 0.0141444, Final residual = 0.000265821, No Iterations 4
GAMG:  Solving for p, Initial residual = 0.708454, Final residual = 0.0368264, No Iterations 4
time step continuity errors : sum local = 0.00226819, global = 2.10413e-16, cumulative = 8.03251e-16
smoothSolver:  Solving for nuTilda, Initial residual = 0.00381495, Final residual = 6.53295e-05, No Iterations 4
bounding nuTilda, min: -0.000360602 max: 0.150389 average: 0.126456
ExecutionTime = 0.43 s  ClockTime = 0 s

Time = 20

smoothSolver:  Solving for Ux, Initial residual = 0.0162883, Final residual = 0.0015107, No Iterations 2
smoothSolver:  Solving for Uy, Initial residual = 0.0131054, Final residual = 0.00129025, No Iterations 2
GAMG:  Solving for p, Initial residual = 0.676511, Final residual = 0.0674525, No Iterations 3
time step continuity errors : sum local = 0.00388344, global = 2.72525e-16, cumulative = 1.07578e-15
smoothSolver:  Solving for nuTilda, Initial residual = 0.00373806, Final residual = 6.40261e-05, No Iterations 4
bounding nuTilda, min: -0.000321122 max: 0.151081 average: 0.126319
ExecutionTime = 0.45 s  ClockTime = 0 s

Time = 21

smoothSolver:  Solving for Ux, Initial residual = 0.0149972, Final residual = 0.00135929, No Iterations 2
smoothSolver:  Solving for Uy, Initial residual = 0.0131652, Final residual = 0.000246678, No Iterations 4
GAMG:  Solving for p, Initial residual = 0.672931, Final residual = 0.0637749, No Iterations 3
time step continuity errors : sum local = 0.00348488, global = 1.50685e-16, cumulative = 1.22646e-15
smoothSolver:  Solving for nuTilda, Initial residual = 0.00368473, Final residual = 6.29508e-05, No Iterations 4
bounding nuTilda, min: -0.000350441 max: 0.151743 average: 0.126181
ExecutionTime = 0.47 s  ClockTime = 0 s

Time = 22

smoothSolver:  Solving for Ux, Initial residual = 0.0130836, Final residual = 0.00114192, No Iterations 2
smoothSolver:  Solving for Uy, Initial residual = 0.012253, Final residual = 0.000232317, No Iterations 4
GAMG:  Solving for p, Initial residual = 0.665703, Final residual = 0.026179, No Iterations 4
time step continuity errors : sum local = 0.00135267, global = -3.84098e-16, cumulative = 8.42364e-16
smoothSolver:  Solving for nuTilda, Initial residual = 0.00362016, Final residual = 6.18473e-05, No Iterations 4
bounding nuTilda, min: -0.000254078 max: 0.152378 average: 0.126052
ExecutionTime = 0.49 s  ClockTime = 0 s

Time = 23

smoothSolver:  Solving for Ux, Initial residual = 0.0119494, Final residual = 0.00111469, No Iterations 2
smoothSolver:  Solving for Uy, Initial residual = 0.0110821, Final residual = 0.000213954, No Iterations 4
GAMG:  Solving for p, Initial residual = 0.660715, Final residual = 0.0276922, No Iterations 4
time step continuity errors : sum local = 0.00136017, global = 4.89167e-16, cumulative = 1.33153e-15
smoothSolver:  Solving for nuTilda, Initial residual = 0.00356994, Final residual = 6.08276e-05, No Iterations 4
bounding nuTilda, min: -2.96921e-06 max: 0.152984 average: 0.125931
ExecutionTime = 0.51 s  ClockTime = 0 s

Time = 24

smoothSolver:  Solving for Ux, Initial residual = 0.012016, Final residual = 0.000220858, No Iterations 4
smoothSolver:  Solving for Uy, Initial residual = 0.010354, Final residual = 0.000213058, No Iterations 4
GAMG:  Solving for p, Initial residual = 0.651488, Final residual = 0.0510366, No Iterations 3
time step continuity errors : sum local = 0.0023559, global = -7.28126e-16, cumulative = 6.03404e-16
smoothSolver:  Solving for nuTilda, Initial residual = 0.00354241, Final residual = 6.05557e-05, No Iterations 4
ExecutionTime = 0.53 s  ClockTime = 0 s

Time = 25

smoothSolver:  Solving for Ux, Initial residual = 0.0102566, Final residual = 0.000209126, No Iterations 4
smoothSolver:  Solving for Uy, Initial residual = 0.00931406, Final residual = 0.000199886, No Iterations 4
GAMG:  Solving for p, Initial residual = 0.632312, Final residual = 0.0195793, No Iterations 4
time step continuity errors : sum local = 0.0008562, global = -1.87268e-17, cumulative = 5.84678e-16
smoothSolver:  Solving for nuTilda, Initial residual = 0.00351254, Final residual = 6.07122e-05, No Iterations 4
ExecutionTime = 0.55 s  ClockTime = 0 s

Time = 26

smoothSolver:  Solving for Ux, Initial residual = 0.00807894, Final residual = 0.0001647, No Iterations 4
smoothSolver:  Solving for Uy, Initial residual = 0.00822437, Final residual = 0.000184178, No Iterations 4
GAMG:  Solving for p, Initial residual = 0.618215, Final residual = 0.0613569, No Iterations 3
time step continuity errors : sum local = 0.00258904, global = -4.97658e-17, cumulative = 5.34912e-16
smoothSolver:  Solving for nuTilda, Initial residual = 0.00349241, Final residual = 6.13582e-05, No Iterations 4
ExecutionTime = 0.56 s  ClockTime = 0 s

Time = 27

smoothSolver:  Solving for Ux, Initial residual = 0.00773615, Final residual = 0.000142864, No Iterations 4
smoothSolver:  Solving for Uy, Initial residual = 0.00794416, Final residual = 0.000174418, No Iterations 4
GAMG:  Solving for p, Initial residual = 0.598664, Final residual = 0.0476783, No Iterations 3
time step continuity errors : sum local = 0.00193803, global = 6.69814e-17, cumulative = 6.01893e-16
smoothSolver:  Solving for nuTilda, Initial residual = 0.00346269, Final residual = 6.20157e-05, No Iterations 4
ExecutionTime = 0.58 s  ClockTime = 0 s

Time = 28

smoothSolver:  Solving for Ux, Initial residual = 0.0075442, Final residual = 0.000143277, No Iterations 4
smoothSolver:  Solving for Uy, Initial residual = 0.00779657, Final residual = 0.000177364, No Iterations 4
GAMG:  Solving for p, Initial residual = 0.58333, Final residual = 0.048901, No Iterations 3
time step continuity errors : sum local = 0.0018876, global = 2.16406e-16, cumulative = 8.18299e-16
smoothSolver:  Solving for nuTilda, Initial residual = 0.00343434, Final residual = 6.27229e-05, No Iterations 4
ExecutionTime = 0.61 s  ClockTime = 0 s

Time = 29

smoothSolver:  Solving for Ux, Initial residual = 0.00750842, Final residual = 0.000147309, No Iterations 4
smoothSolver:  Solving for Uy, Initial residual = 0.00754349, Final residual = 0.00016944, No Iterations 4
GAMG:  Solving for p, Initial residual = 0.592056, Final residual = 0.0544458, No Iterations 3
time step continuity errors : sum local = 0.00199862, global = 2.03481e-16, cumulative = 1.02178e-15
smoothSolver:  Solving for nuTilda, Initial residual = 0.00340423, Final residual = 6.36309e-05, No Iterations 4
ExecutionTime = 0.62 s  ClockTime = 0 s

Time = 30

smoothSolver:  Solving for Ux, Initial residual = 0.00748311, Final residual = 0.000148338, No Iterations 4
smoothSolver:  Solving for Uy, Initial residual = 0.00715603, Final residual = 0.000148632, No Iterations 4
GAMG:  Solving for p, Initial residual = 0.583389, Final residual = 0.0373252, No Iterations 3
time step continuity errors : sum local = 0.00129055, global = -1.26582e-16, cumulative = 8.95198e-16
smoothSolver:  Solving for nuTilda, Initial residual = 0.00338031, Final residual = 6.4539e-05, No Iterations 4
ExecutionTime = 0.64 s  ClockTime = 0 s

Time = 31

smoothSolver:  Solving for Ux, Initial residual = 0.00726091, Final residual = 0.000158138, No Iterations 4
smoothSolver:  Solving for Uy, Initial residual = 0.00688525, Final residual = 0.000154658, No Iterations 4
GAMG:  Solving for p, Initial residual = 0.556787, Final residual = 0.0491865, No Iterations 3
time step continuity errors : sum local = 0.00164315, global = 3.9505e-16, cumulative = 1.29025e-15
smoothSolver:  Solving for nuTilda, Initial residual = 0.00335915, Final residual = 6.56952e-05, No Iterations 4
ExecutionTime = 0.66 s  ClockTime = 0 s

Time = 32

smoothSolver:  Solving for Ux, Initial residual = 0.00684328, Final residual = 0.000169605, No Iterations 4
smoothSolver:  Solving for Uy, Initial residual = 0.00649003, Final residual = 0.000177146, No Iterations 4
GAMG:  Solving for p, Initial residual = 0.533211, Final residual = 0.0402611, No Iterations 3
time step continuity errors : sum local = 0.00130653, global = 4.49432e-17, cumulative = 1.33519e-15
smoothSolver:  Solving for nuTilda, Initial residual = 0.00334512, Final residual = 6.72145e-05, No Iterations 4
ExecutionTime = 0.68 s  ClockTime = 0 s

Time = 33

smoothSolver:  Solving for Ux, Initial residual = 0.00631226, Final residual = 0.000166929, No Iterations 4
smoothSolver:  Solving for Uy, Initial residual = 0.00598287, Final residual = 0.000180974, No Iterations 4
GAMG:  Solving for p, Initial residual = 0.513701, Final residual = 0.0348402, No Iterations 3
time step continuity errors : sum local = 0.00108833, global = -6.0239e-16, cumulative = 7.32802e-16
smoothSolver:  Solving for nuTilda, Initial residual = 0.00333396, Final residual = 6.89649e-05, No Iterations 4
ExecutionTime = 0.69 s  ClockTime = 0 s

Time = 34

smoothSolver:  Solving for Ux, Initial residual = 0.0060482, Final residual = 0.000155885, No Iterations 4
smoothSolver:  Solving for Uy, Initial residual = 0.00558638, Final residual = 0.000168883, No Iterations 4
GAMG:  Solving for p, Initial residual = 0.495535, Final residual = 0.0392982, No Iterations 3
time step continuity errors : sum local = 0.00120358, global = 7.53241e-17, cumulative = 8.08126e-16
smoothSolver:  Solving for nuTilda, Initial residual = 0.00332195, Final residual = 7.05993e-05, No Iterations 4
ExecutionTime = 0.71 s  ClockTime = 0 s

Time = 35

smoothSolver:  Solving for Ux, Initial residual = 0.00584814, Final residual = 0.000138804, No Iterations 4
smoothSolver:  Solving for Uy, Initial residual = 0.00528827, Final residual = 0.000144498, No Iterations 4
GAMG:  Solving for p, Initial residual = 0.477471, Final residual = 0.0307145, No Iterations 3
time step continuity errors : sum local = 0.000882234, global = 3.76348e-16, cumulative = 1.18447e-15
smoothSolver:  Solving for nuTilda, Initial residual = 0.00331782, Final residual = 7.22576e-05, No Iterations 4
ExecutionTime = 0.73 s  ClockTime = 0 s

Time = 36

smoothSolver:  Solving for Ux, Initial residual = 0.00568475, Final residual = 0.000137088, No Iterations 4
smoothSolver:  Solving for Uy, Initial residual = 0.00529891, Final residual = 0.000136836, No Iterations 4
GAMG:  Solving for p, Initial residual = 0.473524, Final residual = 0.0296514, No Iterations 3
time step continuity errors : sum local = 0.000815589, global = -2.01052e-16, cumulative = 9.83422e-16
smoothSolver:  Solving for nuTilda, Initial residual = 0.00332395, Final residual = 7.40664e-05, No Iterations 4
ExecutionTime = 0.75 s  ClockTime = 0 s

Time = 37

smoothSolver:  Solving for Ux, Initial residual = 0.00562578, Final residual = 0.000143423, No Iterations 4
smoothSolver:  Solving for Uy, Initial residual = 0.0052878, Final residual = 0.000135321, No Iterations 4
GAMG:  Solving for p, Initial residual = 0.460542, Final residual = 0.0277266, No Iterations 3
time step continuity errors : sum local = 0.00073556, global = -7.09573e-16, cumulative = 2.73849e-16
smoothSolver:  Solving for nuTilda, Initial residual = 0.00333356, Final residual = 7.57704e-05, No Iterations 4
ExecutionTime = 0.77 s  ClockTime = 0 s

Time = 38

smoothSolver:  Solving for Ux, Initial residual = 0.00569225, Final residual = 0.000148786, No Iterations 4
smoothSolver:  Solving for Uy, Initial residual = 0.00520423, Final residual = 0.000133475, No Iterations 4
GAMG:  Solving for p, Initial residual = 0.43792, Final residual = 0.0375199, No Iterations 3
time step continuity errors : sum local = 0.000981549, global = -4.37149e-18, cumulative = 2.69477e-16
smoothSolver:  Solving for nuTilda, Initial residual = 0.00333804, Final residual = 7.7408e-05, No Iterations 4
ExecutionTime = 0.79 s  ClockTime = 0 s

Time = 39

smoothSolver:  Solving for Ux, Initial residual = 0.00566549, Final residual = 0.000153075, No Iterations 4
smoothSolver:  Solving for Uy, Initial residual = 0.00505063, Final residual = 0.000140644, No Iterations 4
GAMG:  Solving for p, Initial residual = 0.417154, Final residual = 0.0248053, No Iterations 3
time step continuity errors : sum local = 0.000624037, global = -2.44474e-16, cumulative = 2.50028e-17
smoothSolver:  Solving for nuTilda, Initial residual = 0.00334877, Final residual = 7.89848e-05, No Iterations 4
ExecutionTime = 0.8 s  ClockTime = 0 s

Time = 40

smoothSolver:  Solving for Ux, Initial residual = 0.00550366, Final residual = 0.000152914, No Iterations 4
smoothSolver:  Solving for Uy, Initial residual = 0.0048407, Final residual = 0.000145857, No Iterations 4
GAMG:  Solving for p, Initial residual = 0.399038, Final residual = 0.024292, No Iterations 3
time step continuity errors : sum local = 0.000601395, global = -4.96241e-16, cumulative = -4.71238e-16
smoothSolver:  Solving for nuTilda, Initial residual = 0.00336004, Final residual = 8.07033e-05, No Iterations 4
ExecutionTime = 0.83 s  ClockTime = 0 s

Time = 41

smoothSolver:  Solving for Ux, Initial residual = 0.00528202, Final residual = 0.000147618, No Iterations 4
smoothSolver:  Solving for Uy, Initial residual = 0.00458665, Final residual = 0.00014465, No Iterations 4
GAMG:  Solving for p, Initial residual = 0.383189, Final residual = 0.0252139, No Iterations 3
time step continuity errors : sum local = 0.000609006, global = 2.71983e-16, cumulative = -1.99255e-16
smoothSolver:  Solving for nuTilda, Initial residual = 0.00337446, Final residual = 8.24312e-05, No Iterations 4
ExecutionTime = 0.84 s  ClockTime = 1 s

Time = 42

smoothSolver:  Solving for Ux, Initial residual = 0.005115, Final residual = 0.000140522, No Iterations 4
smoothSolver:  Solving for Uy, Initial residual = 0.00445773, Final residual = 0.000137169, No Iterations 4
GAMG:  Solving for p, Initial residual = 0.363017, Final residual = 0.0235951, No Iterations 3
time step continuity errors : sum local = 0.000553051, global = -2.43521e-16, cumulative = -4.42775e-16
smoothSolver:  Solving for nuTilda, Initial residual = 0.00339195, Final residual = 8.41257e-05, No Iterations 4
ExecutionTime = 0.86 s  ClockTime = 1 s

Time = 43

smoothSolver:  Solving for Ux, Initial residual = 0.00497004, Final residual = 0.000136389, No Iterations 4
smoothSolver:  Solving for Uy, Initial residual = 0.00438029, Final residual = 0.000126356, No Iterations 4
GAMG:  Solving for p, Initial residual = 0.348505, Final residual = 0.02435, No Iterations 3
time step continuity errors : sum local = 0.00055219, global = 2.3897e-16, cumulative = -2.03805e-16
smoothSolver:  Solving for nuTilda, Initial residual = 0.00341048, Final residual = 8.58238e-05, No Iterations 4
bounding nuTilda, min: -5.05731e-05 max: 0.166867 average: 0.124762
ExecutionTime = 0.88 s  ClockTime = 1 s

Time = 44

smoothSolver:  Solving for Ux, Initial residual = 0.00487218, Final residual = 0.000140001, No Iterations 4
smoothSolver:  Solving for Uy, Initial residual = 0.00439258, Final residual = 0.000121996, No Iterations 4
GAMG:  Solving for p, Initial residual = 0.338329, Final residual = 0.0218774, No Iterations 3
time step continuity errors : sum local = 0.000486088, global = -5.2141e-17, cumulative = -2.55946e-16
smoothSolver:  Solving for nuTilda, Initial residual = 0.00342599, Final residual = 8.75155e-05, No Iterations 4
ExecutionTime = 0.89 s  ClockTime = 1 s

Time = 45

smoothSolver:  Solving for Ux, Initial residual = 0.00485723, Final residual = 0.00014474, No Iterations 4
smoothSolver:  Solving for Uy, Initial residual = 0.00448017, Final residual = 0.000124317, No Iterations 4
GAMG:  Solving for p, Initial residual = 0.322081, Final residual = 0.019091, No Iterations 3
time step continuity errors : sum local = 0.000417851, global = -3.37047e-17, cumulative = -2.89651e-16
smoothSolver:  Solving for nuTilda, Initial residual = 0.00344035, Final residual = 8.92235e-05, No Iterations 4
bounding nuTilda, min: -0.00034447 max: 0.168174 average: 0.124723
ExecutionTime = 0.91 s  ClockTime = 1 s

Time = 46

smoothSolver:  Solving for Ux, Initial residual = 0.0049383, Final residual = 0.000146408, No Iterations 4
smoothSolver:  Solving for Uy, Initial residual = 0.00450722, Final residual = 0.000123233, No Iterations 4
GAMG:  Solving for p, Initial residual = 0.302671, Final residual = 0.00966852, No Iterations 4
time step continuity errors : sum local = 0.000210701, global = -3.07146e-16, cumulative = -5.96797e-16
smoothSolver:  Solving for nuTilda, Initial residual = 0.0034569, Final residual = 9.09597e-05, No Iterations 4
ExecutionTime = 0.93 s  ClockTime = 1 s

Time = 47

smoothSolver:  Solving for Ux, Initial residual = 0.00488173, Final residual = 0.00014388, No Iterations 4
smoothSolver:  Solving for Uy, Initial residual = 0.00440975, Final residual = 0.000120916, No Iterations 4
GAMG:  Solving for p, Initial residual = 0.285853, Final residual = 0.0265014, No Iterations 3
time step continuity errors : sum local = 0.000584352, global = -7.58169e-17, cumulative = -6.72614e-16
smoothSolver:  Solving for nuTilda, Initial residual = 0.00347757, Final residual = 9.27387e-05, No Iterations 4
bounding nuTilda, min: -0.000563715 max: 0.169428 average: 0.12469
ExecutionTime = 0.95 s  ClockTime = 1 s

Time = 48

smoothSolver:  Solving for Ux, Initial residual = 0.00472628, Final residual = 0.000140285, No Iterations 4
smoothSolver:  Solving for Uy, Initial residual = 0.00428712, Final residual = 0.000121015, No Iterations 4
GAMG:  Solving for p, Initial residual = 0.272228, Final residual = 0.0193553, No Iterations 3
time step continuity errors : sum local = 0.000418474, global = 6.2868e-17, cumulative = -6.09746e-16
smoothSolver:  Solving for nuTilda, Initial residual = 0.00349975, Final residual = 9.45154e-05, No Iterations 4
bounding nuTilda, min: -5.40312e-05 max: 0.170084 average: 0.124674
ExecutionTime = 0.97 s  ClockTime = 1 s

Time = 49

smoothSolver:  Solving for Ux, Initial residual = 0.00461254, Final residual = 0.000137604, No Iterations 4
smoothSolver:  Solving for Uy, Initial residual = 0.00420384, Final residual = 0.000120212, No Iterations 4
GAMG:  Solving for p, Initial residual = 0.258094, Final residual = 0.0232184, No Iterations 3
time step continuity errors : sum local = 0.000509709, global = 3.4431e-16, cumulative = -2.65436e-16
smoothSolver:  Solving for nuTilda, Initial residual = 0.00352615, Final residual = 9.63384e-05, No Iterations 4
bounding nuTilda, min: -0.000125777 max: 0.170675 average: 0.12466
ExecutionTime = 0.99 s  ClockTime = 1 s

Time = 50

smoothSolver:  Solving for Ux, Initial residual = 0.00457845, Final residual = 0.000136851, No Iterations 4
smoothSolver:  Solving for Uy, Initial residual = 0.00419986, Final residual = 0.000117618, No Iterations 4
GAMG:  Solving for p, Initial residual = 0.245742, Final residual = 0.0186364, No Iterations 3
time step continuity errors : sum local = 0.000395292, global = -5.7596e-16, cumulative = -8.41396e-16
smoothSolver:  Solving for nuTilda, Initial residual = 0.00355447, Final residual = 9.82621e-05, No Iterations 4
bounding nuTilda, min: -0.000192329 max: 0.171227 average: 0.124645
ExecutionTime = 1.04 s  ClockTime = 1 s

Time = 51

smoothSolver:  Solving for Ux, Initial residual = 0.00456658, Final residual = 0.000138918, No Iterations 4
smoothSolver:  Solving for Uy, Initial residual = 0.00424844, Final residual = 0.000118475, No Iterations 4
GAMG:  Solving for p, Initial residual = 0.238538, Final residual = 0.0167924, No Iterations 3
time step continuity errors : sum local = 0.00035146, global = 1.42171e-16, cumulative = -6.99225e-16
smoothSolver:  Solving for nuTilda, Initial residual = 0.00358176, Final residual = 0.000100161, No Iterations 4
bounding nuTilda, min: -0.000178176 max: 0.171808 average: 0.12463
ExecutionTime = 1.06 s  ClockTime = 1 s

Time = 52

smoothSolver:  Solving for Ux, Initial residual = 0.00449604, Final residual = 0.00014066, No Iterations 4
smoothSolver:  Solving for Uy, Initial residual = 0.00429018, Final residual = 0.00012002, No Iterations 4
GAMG:  Solving for p, Initial residual = 0.23007, Final residual = 0.00701768, No Iterations 4
time step continuity errors : sum local = 0.00014629, global = -6.55732e-17, cumulative = -7.64798e-16
smoothSolver:  Solving for nuTilda, Initial residual = 0.0036121, Final residual = 0.000102178, No Iterations 4
bounding nuTilda, min: -0.000187839 max: 0.17234 average: 0.124616
ExecutionTime = 1.07 s  ClockTime = 1 s

Time = 53

smoothSolver:  Solving for Ux, Initial residual = 0.00445315, Final residual = 0.000142046, No Iterations 4
smoothSolver:  Solving for Uy, Initial residual = 0.00433271, Final residual = 0.00011919, No Iterations 4
GAMG:  Solving for p, Initial residual = 0.219109, Final residual = 0.0141387, No Iterations 4
time step continuity errors : sum local = 0.000299352, global = -1.83409e-16, cumulative = -9.48207e-16
smoothSolver:  Solving for nuTilda, Initial residual = 0.00364389, Final residual = 0.000104179, No Iterations 4
bounding nuTilda, min: -0.000313043 max: 0.172928 average: 0.124601
ExecutionTime = 1.09 s  ClockTime = 1 s

Time = 54

smoothSolver:  Solving for Ux, Initial residual = 0.00444765, Final residual = 0.000140918, No Iterations 4
smoothSolver:  Solving for Uy, Initial residual = 0.00429955, Final residual = 0.000116088, No Iterations 4
GAMG:  Solving for p, Initial residual = 0.209308, Final residual = 0.015902, No Iterations 3
time step continuity errors : sum local = 0.000341465, global = -3.0726e-16, cumulative = -1.25547e-15
smoothSolver:  Solving for nuTilda, Initial residual = 0.00367398, Final residual = 0.000106081, No Iterations 4
bounding nuTilda, min: -0.000262098 max: 0.173441 average: 0.124586
ExecutionTime = 1.11 s  ClockTime = 1 s

Time = 55

smoothSolver:  Solving for Ux, Initial residual = 0.00436925, Final residual = 0.000138671, No Iterations 4
smoothSolver:  Solving for Uy, Initial residual = 0.00423673, Final residual = 0.000115604, No Iterations 4
GAMG:  Solving for p, Initial residual = 0.199118, Final residual = 0.0185642, No Iterations 3
time step continuity errors : sum local = 0.000404181, global = -2.53445e-16, cumulative = -1.50891e-15
smoothSolver:  Solving for nuTilda, Initial residual = 0.00370286, Final residual = 0.000107937, No Iterations 4
bounding nuTilda, min: -0.00028502 max: 0.173905 average: 0.124571
ExecutionTime = 1.13 s  ClockTime = 1 s

Time = 56

smoothSolver:  Solving for Ux, Initial residual = 0.00428612, Final residual = 0.00013693, No Iterations 4
smoothSolver:  Solving for Uy, Initial residual = 0.00419874, Final residual = 0.000116692, No Iterations 4
GAMG:  Solving for p, Initial residual = 0.191154, Final residual = 0.0170507, No Iterations 3
time step continuity errors : sum local = 0.000363362, global = 6.88149e-17, cumulative = -1.4401e-15
smoothSolver:  Solving for nuTilda, Initial residual = 0.00373378, Final residual = 0.000109748, No Iterations 4
bounding nuTilda, min: -0.000314103 max: 0.174435 average: 0.124556
ExecutionTime = 1.15 s  ClockTime = 1 s

Time = 57

smoothSolver:  Solving for Ux, Initial residual = 0.00427193, Final residual = 0.000136857, No Iterations 4
smoothSolver:  Solving for Uy, Initial residual = 0.00420384, Final residual = 0.000117925, No Iterations 4
GAMG:  Solving for p, Initial residual = 0.185618, Final residual = 0.00876651, No Iterations 4
time step continuity errors : sum local = 0.000186667, global = 5.34629e-16, cumulative = -9.05467e-16
smoothSolver:  Solving for nuTilda, Initial residual = 0.00376433, Final residual = 0.000111475, No Iterations 4
bounding nuTilda, min: -0.000365083 max: 0.174926 average: 0.12454
ExecutionTime = 1.17 s  ClockTime = 1 s

Time = 58

smoothSolver:  Solving for Ux, Initial residual = 0.00433372, Final residual = 0.000138463, No Iterations 4
smoothSolver:  Solving for Uy, Initial residual = 0.00427114, Final residual = 0.000119954, No Iterations 4
GAMG:  Solving for p, Initial residual = 0.177828, Final residual = 0.013436, No Iterations 3
time step continuity errors : sum local = 0.000289652, global = -5.73203e-16, cumulative = -1.47867e-15
smoothSolver:  Solving for nuTilda, Initial residual = 0.00379078, Final residual = 0.000113066, No Iterations 4
bounding nuTilda, min: -0.000369235 max: 0.175348 average: 0.124524
ExecutionTime = 1.19 s  ClockTime = 1 s

Time = 59

smoothSolver:  Solving for Ux, Initial residual = 0.00432808, Final residual = 0.000139301, No Iterations 4
smoothSolver:  Solving for Uy, Initial residual = 0.00429915, Final residual = 0.00012101, No Iterations 4
GAMG:  Solving for p, Initial residual = 0.170646, Final residual = 0.0139245, No Iterations 3
time step continuity errors : sum local = 0.000299284, global = -6.48664e-17, cumulative = -1.54354e-15
smoothSolver:  Solving for nuTilda, Initial residual = 0.00381921, Final residual = 0.000114748, No Iterations 4
bounding nuTilda, min: -0.000433187 max: 0.175831 average: 0.124509
ExecutionTime = 1.21 s  ClockTime = 1 s

Time = 60

smoothSolver:  Solving for Ux, Initial residual = 0.0042589, Final residual = 0.000139302, No Iterations 4
smoothSolver:  Solving for Uy, Initial residual = 0.0043008, Final residual = 0.000121548, No Iterations 4
GAMG:  Solving for p, Initial residual = 0.164299, Final residual = 0.00806181, No Iterations 4
time step continuity errors : sum local = 0.000175041, global = -9.05593e-17, cumulative = -1.6341e-15
smoothSolver:  Solving for nuTilda, Initial residual = 0.00384389, Final residual = 0.000116302, No Iterations 4
bounding nuTilda, min: -0.000425514 max: 0.176296 average: 0.124493
ExecutionTime = 1.23 s  ClockTime = 1 s

Time = 61

smoothSolver:  Solving for Ux, Initial residual = 0.00417263, Final residual = 0.00013927, No Iterations 4
smoothSolver:  Solving for Uy, Initial residual = 0.00429197, Final residual = 0.000121536, No Iterations 4
GAMG:  Solving for p, Initial residual = 0.156773, Final residual = 0.0135125, No Iterations 3
time step continuity errors : sum local = 0.00029686, global = 5.88559e-17, cumulative = -1.57524e-15
smoothSolver:  Solving for nuTilda, Initial residual = 0.00386393, Final residual = 0.000117652, No Iterations 4
bounding nuTilda, min: -0.000494931 max: 0.176724 average: 0.124478
ExecutionTime = 1.25 s  ClockTime = 1 s

Time = 62

smoothSolver:  Solving for Ux, Initial residual = 0.00413133, Final residual = 0.000138511, No Iterations 4
smoothSolver:  Solving for Uy, Initial residual = 0.00425976, Final residual = 0.000120739, No Iterations 4
GAMG:  Solving for p, Initial residual = 0.150395, Final residual = 0.0108929, No Iterations 3
time step continuity errors : sum local = 0.000244069, global = -2.96833e-16, cumulative = -1.87207e-15
smoothSolver:  Solving for nuTilda, Initial residual = 0.00388118, Final residual = 0.000118813, No Iterations 4
bounding nuTilda, min: -0.000466759 max: 0.177119 average: 0.124464
ExecutionTime = 1.27 s  ClockTime = 1 s

Time = 63

smoothSolver:  Solving for Ux, Initial residual = 0.00409419, Final residual = 0.00013763, No Iterations 4
smoothSolver:  Solving for Uy, Initial residual = 0.00422413, Final residual = 0.000119815, No Iterations 4
GAMG:  Solving for p, Initial residual = 0.143342, Final residual = 0.0121976, No Iterations 3
time step continuity errors : sum local = 0.000269965, global = 3.03405e-16, cumulative = -1.56867e-15
smoothSolver:  Solving for nuTilda, Initial residual = 0.0039012, Final residual = 0.000119864, No Iterations 4
bounding nuTilda, min: -0.000545375 max: 0.17983 average: 0.124451
ExecutionTime = 1.29 s  ClockTime = 1 s

Time = 64

smoothSolver:  Solving for Ux, Initial residual = 0.00406029, Final residual = 0.000137218, No Iterations 4
smoothSolver:  Solving for Uy, Initial residual = 0.00421086, Final residual = 0.000119494, No Iterations 4
GAMG:  Solving for p, Initial residual = 0.139918, Final residual = 0.0136407, No Iterations 3
time step continuity errors : sum local = 0.000310445, global = 2.8351e-16, cumulative = -1.28516e-15
smoothSolver:  Solving for nuTilda, Initial residual = 0.00391785, Final residual = 0.000120887, No Iterations 4
bounding nuTilda, min: -0.000505398 max: 0.18599 average: 0.124439
ExecutionTime = 1.31 s  ClockTime = 1 s

Time = 65

smoothSolver:  Solving for Ux, Initial residual = 0.00404121, Final residual = 0.00013725, No Iterations 4
smoothSolver:  Solving for Uy, Initial residual = 0.0042374, Final residual = 0.000119628, No Iterations 4
GAMG:  Solving for p, Initial residual = 0.136286, Final residual = 0.01361, No Iterations 3
time step continuity errors : sum local = 0.00031513, global = 3.07579e-16, cumulative = -9.77579e-16
smoothSolver:  Solving for nuTilda, Initial residual = 0.00392974, Final residual = 0.000121949, No Iterations 4
bounding nuTilda, min: -0.000585373 max: 0.191677 average: 0.12443
ExecutionTime = 1.33 s  ClockTime = 1 s

Time = 66

smoothSolver:  Solving for Ux, Initial residual = 0.00403842, Final residual = 0.000137797, No Iterations 4
smoothSolver:  Solving for Uy, Initial residual = 0.00427224, Final residual = 0.000120704, No Iterations 4
GAMG:  Solving for p, Initial residual = 0.131314, Final residual = 0.0129014, No Iterations 3
time step continuity errors : sum local = 0.000293078, global = -6.25468e-16, cumulative = -1.60305e-15
smoothSolver:  Solving for nuTilda, Initial residual = 0.00394114, Final residual = 0.000122949, No Iterations 4
bounding nuTilda, min: -0.000534221 max: 0.196461 average: 0.124422
ExecutionTime = 1.34 s  ClockTime = 1 s

Time = 67

smoothSolver:  Solving for Ux, Initial residual = 0.00403796, Final residual = 0.000138534, No Iterations 4
smoothSolver:  Solving for Uy, Initial residual = 0.00429741, Final residual = 0.000122767, No Iterations 4
GAMG:  Solving for p, Initial residual = 0.124829, Final residual = 0.0109259, No Iterations 3
time step continuity errors : sum local = 0.000259569, global = 3.33428e-17, cumulative = -1.5697e-15
smoothSolver:  Solving for nuTilda, Initial residual = 0.00395488, Final residual = 0.000123892, No Iterations 4
bounding nuTilda, min: -0.000614801 max: 0.200955 average: 0.124417
ExecutionTime = 1.36 s  ClockTime = 1 s

Time = 68

smoothSolver:  Solving for Ux, Initial residual = 0.00401204, Final residual = 0.000138878, No Iterations 4
smoothSolver:  Solving for Uy, Initial residual = 0.00430912, Final residual = 0.000124462, No Iterations 4
GAMG:  Solving for p, Initial residual = 0.116992, Final residual = 0.00742456, No Iterations 4
time step continuity errors : sum local = 0.000173845, global = 1.43625e-17, cumulative = -1.55534e-15
smoothSolver:  Solving for nuTilda, Initial residual = 0.00396439, Final residual = 0.000124823, No Iterations 4
bounding nuTilda, min: -0.000560794 max: 0.205342 average: 0.124414
ExecutionTime = 1.38 s  ClockTime = 1 s

Time = 69

smoothSolver:  Solving for Ux, Initial residual = 0.0039705, Final residual = 0.000139263, No Iterations 4
smoothSolver:  Solving for Uy, Initial residual = 0.00431735, Final residual = 0.000126772, No Iterations 4
GAMG:  Solving for p, Initial residual = 0.110494, Final residual = 0.00664221, No Iterations 4
time step continuity errors : sum local = 0.000154657, global = -2.46501e-17, cumulative = -1.57999e-15
smoothSolver:  Solving for nuTilda, Initial residual = 0.00397485, Final residual = 0.000125835, No Iterations 4
bounding nuTilda, min: -0.000641261 max: 0.212729 average: 0.124415
ExecutionTime = 1.4 s  ClockTime = 1 s

Time = 70

smoothSolver:  Solving for Ux, Initial residual = 0.00391502, Final residual = 0.00013926, No Iterations 4
smoothSolver:  Solving for Uy, Initial residual = 0.00429259, Final residual = 0.000127353, No Iterations 4
GAMG:  Solving for p, Initial residual = 0.104636, Final residual = 0.0103322, No Iterations 3
time step continuity errors : sum local = 0.000246575, global = 1.59328e-16, cumulative = -1.42066e-15
smoothSolver:  Solving for nuTilda, Initial residual = 0.00397866, Final residual = 0.00012682, No Iterations 4
bounding nuTilda, min: -0.000579033 max: 0.219473 average: 0.124418
ExecutionTime = 1.42 s  ClockTime = 1 s

Time = 71

smoothSolver:  Solving for Ux, Initial residual = 0.00387644, Final residual = 0.000139369, No Iterations 4
smoothSolver:  Solving for Uy, Initial residual = 0.0042735, Final residual = 0.000127363, No Iterations 4
GAMG:  Solving for p, Initial residual = 0.100855, Final residual = 0.00969546, No Iterations 3
time step continuity errors : sum local = 0.000225482, global = 7.56435e-17, cumulative = -1.34502e-15
smoothSolver:  Solving for nuTilda, Initial residual = 0.00397528, Final residual = 0.000127888, No Iterations 4
bounding nuTilda, min: -0.000654955 max: 0.22515 average: 0.124426
ExecutionTime = 1.44 s  ClockTime = 1 s

Time = 72

smoothSolver:  Solving for Ux, Initial residual = 0.00386334, Final residual = 0.000140016, No Iterations 4
smoothSolver:  Solving for Uy, Initial residual = 0.004285, Final residual = 0.000128539, No Iterations 4
GAMG:  Solving for p, Initial residual = 0.0984534, Final residual = 0.00430653, No Iterations 4
time step continuity errors : sum local = 0.000101083, global = -2.25782e-16, cumulative = -1.5708e-15
smoothSolver:  Solving for nuTilda, Initial residual = 0.00396856, Final residual = 0.000129169, No Iterations 4
bounding nuTilda, min: -0.000598616 max: 0.230614 average: 0.124437
ExecutionTime = 1.46 s  ClockTime = 1 s

Time = 73

smoothSolver:  Solving for Ux, Initial residual = 0.003885, Final residual = 0.000141458, No Iterations 4
smoothSolver:  Solving for Uy, Initial residual = 0.00434512, Final residual = 0.000131356, No Iterations 4
GAMG:  Solving for p, Initial residual = 0.096857, Final residual = 0.00454947, No Iterations 4
time step continuity errors : sum local = 0.000107028, global = 1.72202e-16, cumulative = -1.3986e-15
smoothSolver:  Solving for nuTilda, Initial residual = 0.00396333, Final residual = 0.000130763, No Iterations 4
bounding nuTilda, min: -0.000665573 max: 0.235584 average: 0.124454
ExecutionTime = 1.48 s  ClockTime = 1 s

Time = 74

smoothSolver:  Solving for Ux, Initial residual = 0.00391623, Final residual = 0.000143492, No Iterations 4
smoothSolver:  Solving for Uy, Initial residual = 0.00440881, Final residual = 0.000135613, No Iterations 4
GAMG:  Solving for p, Initial residual = 0.094988, Final residual = 0.0045985, No Iterations 4
time step continuity errors : sum local = 0.000108953, global = 4.4654e-16, cumulative = -9.52061e-16
smoothSolver:  Solving for nuTilda, Initial residual = 0.00396291, Final residual = 0.000132377, No Iterations 4
bounding nuTilda, min: -0.000605299 max: 0.239854 average: 0.124475
ExecutionTime = 1.5 s  ClockTime = 1 s

Time = 75

smoothSolver:  Solving for Ux, Initial residual = 0.00394039, Final residual = 0.000145439, No Iterations 4
smoothSolver:  Solving for Uy, Initial residual = 0.00445926, Final residual = 0.0001406, No Iterations 4
GAMG:  Solving for p, Initial residual = 0.0910538, Final residual = 0.00903494, No Iterations 3
time step continuity errors : sum local = 0.000222532, global = 4.60497e-18, cumulative = -9.47456e-16
smoothSolver:  Solving for nuTilda, Initial residual = 0.00396125, Final residual = 0.000133782, No Iterations 4
bounding nuTilda, min: -0.000657662 max: 0.243852 average: 0.1245
ExecutionTime = 1.52 s  ClockTime = 1 s

Time = 76

smoothSolver:  Solving for Ux, Initial residual = 0.00394799, Final residual = 0.000147256, No Iterations 4
smoothSolver:  Solving for Uy, Initial residual = 0.00448687, Final residual = 0.000144983, No Iterations 4
GAMG:  Solving for p, Initial residual = 0.0876946, Final residual = 0.00570863, No Iterations 4
time step continuity errors : sum local = 0.000138688, global = -3.12165e-16, cumulative = -1.25962e-15
smoothSolver:  Solving for nuTilda, Initial residual = 0.00395885, Final residual = 0.000135403, No Iterations 4
bounding nuTilda, min: -0.000604887 max: 0.247654 average: 0.124529
ExecutionTime = 1.54 s  ClockTime = 1 s

Time = 77

smoothSolver:  Solving for Ux, Initial residual = 0.00396125, Final residual = 0.000149183, No Iterations 4
smoothSolver:  Solving for Uy, Initial residual = 0.00452229, Final residual = 0.000148695, No Iterations 4
GAMG:  Solving for p, Initial residual = 0.084635, Final residual = 0.0042683, No Iterations 4
time step continuity errors : sum local = 0.00010341, global = -1.13363e-16, cumulative = -1.37298e-15
smoothSolver:  Solving for nuTilda, Initial residual = 0.00395638, Final residual = 0.0001369, No Iterations 4
bounding nuTilda, min: -0.000648206 max: 0.252145 average: 0.124563
ExecutionTime = 1.56 s  ClockTime = 1 s

Time = 78

smoothSolver:  Solving for Ux, Initial residual = 0.00396982, Final residual = 0.000150829, No Iterations 4
smoothSolver:  Solving for Uy, Initial residual = 0.00454378, Final residual = 0.000150906, No Iterations 4
GAMG:  Solving for p, Initial residual = 0.0828764, Final residual = 0.0038468, No Iterations 4
time step continuity errors : sum local = 9.29614e-05, global = -6.26112e-17, cumulative = -1.43559e-15
smoothSolver:  Solving for nuTilda, Initial residual = 0.00395009, Final residual = 0.000138226, No Iterations 4
bounding nuTilda, min: -0.000598828 max: 0.258288 average: 0.124602
ExecutionTime = 1.58 s  ClockTime = 1 s

Time = 79

smoothSolver:  Solving for Ux, Initial residual = 0.00399286, Final residual = 0.000152501, No Iterations 4
smoothSolver:  Solving for Uy, Initial residual = 0.00458044, Final residual = 0.000153278, No Iterations 4
GAMG:  Solving for p, Initial residual = 0.0820921, Final residual = 0.00320453, No Iterations 4
time step continuity errors : sum local = 7.7779e-05, global = -2.52213e-16, cumulative = -1.68781e-15
smoothSolver:  Solving for nuTilda, Initial residual = 0.00395605, Final residual = 0.000139772, No Iterations 4
bounding nuTilda, min: -0.000629775 max: 0.263701 average: 0.124645
ExecutionTime = 1.6 s  ClockTime = 1 s

Time = 80

smoothSolver:  Solving for Ux, Initial residual = 0.00402598, Final residual = 0.000154555, No Iterations 4
smoothSolver:  Solving for Uy, Initial residual = 0.00464567, Final residual = 0.000157231, No Iterations 4
GAMG:  Solving for p, Initial residual = 0.0810875, Final residual = 0.00360142, No Iterations 4
time step continuity errors : sum local = 8.78214e-05, global = 1.9634e-16, cumulative = -1.49147e-15
smoothSolver:  Solving for nuTilda, Initial residual = 0.00397112, Final residual = 0.000141613, No Iterations 4
bounding nuTilda, min: -0.000587833 max: 0.268496 average: 0.124692
ExecutionTime = 1.62 s  ClockTime = 1 s

Time = 81

smoothSolver:  Solving for Ux, Initial residual = 0.0040716, Final residual = 0.00015703, No Iterations 4
smoothSolver:  Solving for Uy, Initial residual = 0.00473825, Final residual = 0.0001629, No Iterations 4
GAMG:  Solving for p, Initial residual = 0.0808624, Final residual = 0.00394349, No Iterations 4
time step continuity errors : sum local = 9.68589e-05, global = 6.17247e-17, cumulative = -1.42974e-15
smoothSolver:  Solving for nuTilda, Initial residual = 0.00399532, Final residual = 0.000143381, No Iterations 4
bounding nuTilda, min: -0.000605924 max: 0.27332 average: 0.124743
ExecutionTime = 1.64 s  ClockTime = 1 s

Time = 82

smoothSolver:  Solving for Ux, Initial residual = 0.00412611, Final residual = 0.000159883, No Iterations 4
smoothSolver:  Solving for Uy, Initial residual = 0.00484147, Final residual = 0.000169323, No Iterations 4
GAMG:  Solving for p, Initial residual = 0.0814829, Final residual = 0.00362013, No Iterations 4
time step continuity errors : sum local = 8.95518e-05, global = -3.17258e-16, cumulative = -1.747e-15
smoothSolver:  Solving for nuTilda, Initial residual = 0.00402416, Final residual = 0.000145134, No Iterations 4
bounding nuTilda, min: -0.000571803 max: 0.277634 average: 0.124799
ExecutionTime = 1.66 s  ClockTime = 1 s

Time = 83

smoothSolver:  Solving for Ux, Initial residual = 0.00418193, Final residual = 0.000162733, No Iterations 4
smoothSolver:  Solving for Uy, Initial residual = 0.00493592, Final residual = 0.00017516, No Iterations 4
GAMG:  Solving for p, Initial residual = 0.081859, Final residual = 0.0032174, No Iterations 4
time step continuity errors : sum local = 8.02211e-05, global = -1.7496e-16, cumulative = -1.92196e-15
smoothSolver:  Solving for nuTilda, Initial residual = 0.00406184, Final residual = 0.000147248, No Iterations 4
bounding nuTilda, min: -0.000577685 max: 0.281449 average: 0.12486
ExecutionTime = 1.68 s  ClockTime = 1 s

Time = 84

smoothSolver:  Solving for Ux, Initial residual = 0.00423568, Final residual = 0.00016523, No Iterations 4
smoothSolver:  Solving for Uy, Initial residual = 0.00500778, Final residual = 0.000179549, No Iterations 4
GAMG:  Solving for p, Initial residual = 0.0818125, Final residual = 0.00425496, No Iterations 4
time step continuity errors : sum local = 0.000111685, global = -5.39423e-16, cumulative = -2.46138e-15
smoothSolver:  Solving for nuTilda, Initial residual = 0.00409925, Final residual = 0.000148931, No Iterations 4
bounding nuTilda, min: -0.000550813 max: 0.284787 average: 0.124924
ExecutionTime = 1.7 s  ClockTime = 1 s

Time = 85

smoothSolver:  Solving for Ux, Initial residual = 0.00428733, Final residual = 0.000167462, No Iterations 4
smoothSolver:  Solving for Uy, Initial residual = 0.00505657, Final residual = 0.000182347, No Iterations 4
GAMG:  Solving for p, Initial residual = 0.0820345, Final residual = 0.00361084, No Iterations 4
time step continuity errors : sum local = 9.14791e-05, global = -9.24744e-18, cumulative = -2.47063e-15
smoothSolver:  Solving for nuTilda, Initial residual = 0.00414008, Final residual = 0.0001503, No Iterations 4
bounding nuTilda, min: -0.000545901 max: 0.287652 average: 0.124993
ExecutionTime = 1.72 s  ClockTime = 1 s

Time = 86

smoothSolver:  Solving for Ux, Initial residual = 0.0043302, Final residual = 0.000169698, No Iterations 4
smoothSolver:  Solving for Uy, Initial residual = 0.00509492, Final residual = 0.000185484, No Iterations 4
GAMG:  Solving for p, Initial residual = 0.0834618, Final residual = 0.00825057, No Iterations 3
time step continuity errors : sum local = 0.000215159, global = 5.51425e-16, cumulative = -1.91921e-15
smoothSolver:  Solving for nuTilda, Initial residual = 0.00418187, Final residual = 0.000152031, No Iterations 4
bounding nuTilda, min: -0.000524476 max: 0.290058 average: 0.125065
ExecutionTime = 1.74 s  ClockTime = 1 s

Time = 87

smoothSolver:  Solving for Ux, Initial residual = 0.00438589, Final residual = 0.000172338, No Iterations 4
smoothSolver:  Solving for Uy, Initial residual = 0.00515068, Final residual = 0.000188995, No Iterations 4
GAMG:  Solving for p, Initial residual = 0.0846666, Final residual = 0.00810424, No Iterations 3
time step continuity errors : sum local = 0.000214931, global = 3.1975e-16, cumulative = -1.59946e-15
smoothSolver:  Solving for nuTilda, Initial residual = 0.00423314, Final residual = 0.000153983, No Iterations 4
bounding nuTilda, min: -0.000508727 max: 0.293511 average: 0.12514
ExecutionTime = 1.76 s  ClockTime = 1 s

Time = 88

smoothSolver:  Solving for Ux, Initial residual = 0.00445621, Final residual = 0.000175532, No Iterations 4
smoothSolver:  Solving for Uy, Initial residual = 0.00523837, Final residual = 0.000193122, No Iterations 4
GAMG:  Solving for p, Initial residual = 0.086591, Final residual = 0.00778986, No Iterations 3
time step continuity errors : sum local = 0.000200902, global = 8.83535e-17, cumulative = -1.5111e-15
smoothSolver:  Solving for nuTilda, Initial residual = 0.00429043, Final residual = 0.000155857, No Iterations 4
bounding nuTilda, min: -0.000494262 max: 0.298688 average: 0.125219
ExecutionTime = 1.78 s  ClockTime = 1 s

Time = 89

smoothSolver:  Solving for Ux, Initial residual = 0.00452723, Final residual = 0.000178821, No Iterations 4
smoothSolver:  Solving for Uy, Initial residual = 0.00534984, Final residual = 0.000198575, No Iterations 4
GAMG:  Solving for p, Initial residual = 0.0891109, Final residual = 0.00345495, No Iterations 4
time step continuity errors : sum local = 8.9286e-05, global = 3.86067e-17, cumulative = -1.4725e-15
smoothSolver:  Solving for nuTilda, Initial residual = 0.00436357, Final residual = 0.000158552, No Iterations 4
bounding nuTilda, min: -0.000467912 max: 0.303313 average: 0.125302
ExecutionTime = 1.8 s  ClockTime = 1 s

Time = 90

smoothSolver:  Solving for Ux, Initial residual = 0.00462405, Final residual = 0.0001829, No Iterations 4
smoothSolver:  Solving for Uy, Initial residual = 0.00550067, Final residual = 0.000204181, No Iterations 4
GAMG:  Solving for p, Initial residual = 0.0897531, Final residual = 0.00852657, No Iterations 3
time step continuity errors : sum local = 0.00022423, global = -6.32244e-17, cumulative = -1.53572e-15
smoothSolver:  Solving for nuTilda, Initial residual = 0.00443348, Final residual = 0.000161021, No Iterations 4
bounding nuTilda, min: -0.000457815 max: 0.307391 average: 0.125389
ExecutionTime = 1.82 s  ClockTime = 1 s

Time = 91

smoothSolver:  Solving for Ux, Initial residual = 0.00469957, Final residual = 0.00018652, No Iterations 4
smoothSolver:  Solving for Uy, Initial residual = 0.00561855, Final residual = 0.000209554, No Iterations 4
GAMG:  Solving for p, Initial residual = 0.0897518, Final residual = 0.00806539, No Iterations 3
time step continuity errors : sum local = 0.000215419, global = -6.88632e-16, cumulative = -2.22435e-15
smoothSolver:  Solving for nuTilda, Initial residual = 0.00450609, Final residual = 0.000163528, No Iterations 4
bounding nuTilda, min: -0.000419847 max: 0.310912 average: 0.125479
ExecutionTime = 1.84 s  ClockTime = 2 s

Time = 92

smoothSolver:  Solving for Ux, Initial residual = 0.00477135, Final residual = 0.000189878, No Iterations 4
smoothSolver:  Solving for Uy, Initial residual = 0.00572096, Final residual = 0.000214463, No Iterations 4
GAMG:  Solving for p, Initial residual = 0.0909144, Final residual = 0.00907305, No Iterations 3
time step continuity errors : sum local = 0.00024535, global = -2.75476e-16, cumulative = -2.49983e-15
smoothSolver:  Solving for nuTilda, Initial residual = 0.00457908, Final residual = 0.000165821, No Iterations 4
bounding nuTilda, min: -0.000508393 max: 0.313846 average: 0.125572
ExecutionTime = 1.86 s  ClockTime = 2 s

Time = 93

smoothSolver:  Solving for Ux, Initial residual = 0.00485325, Final residual = 0.000193283, No Iterations 4
smoothSolver:  Solving for Uy, Initial residual = 0.00581438, Final residual = 0.000218301, No Iterations 4
GAMG:  Solving for p, Initial residual = 0.0927003, Final residual = 0.00384859, No Iterations 4
time step continuity errors : sum local = 0.000102193, global = 6.74069e-16, cumulative = -1.82576e-15
smoothSolver:  Solving for nuTilda, Initial residual = 0.00464989, Final residual = 0.000168707, No Iterations 4
bounding nuTilda, min: -0.000382121 max: 0.316239 average: 0.125667
ExecutionTime = 1.88 s  ClockTime = 2 s

Time = 94

smoothSolver:  Solving for Ux, Initial residual = 0.00495356, Final residual = 0.000197205, No Iterations 4
smoothSolver:  Solving for Uy, Initial residual = 0.00590497, Final residual = 0.000220996, No Iterations 4
GAMG:  Solving for p, Initial residual = 0.0955644, Final residual = 0.00366576, No Iterations 4
time step continuity errors : sum local = 9.80962e-05, global = -4.11078e-16, cumulative = -2.23684e-15
smoothSolver:  Solving for nuTilda, Initial residual = 0.00471703, Final residual = 0.000172217, No Iterations 4
bounding nuTilda, min: -0.000317816 max: 0.318217 average: 0.125765
ExecutionTime = 1.9 s  ClockTime = 2 s

Time = 95

smoothSolver:  Solving for Ux, Initial residual = 0.00505632, Final residual = 0.000201008, No Iterations 4
smoothSolver:  Solving for Uy, Initial residual = 0.00599753, Final residual = 0.000223644, No Iterations 4
GAMG:  Solving for p, Initial residual = 0.0973325, Final residual = 0.00909765, No Iterations 3
time step continuity errors : sum local = 0.000243641, global = 2.85203e-16, cumulative = -1.95163e-15
smoothSolver:  Solving for nuTilda, Initial residual = 0.00478404, Final residual = 0.000175613, No Iterations 4
bounding nuTilda, min: -0.000388927 max: 0.319618 average: 0.125865
ExecutionTime = 1.91 s  ClockTime = 2 s

Time = 96

smoothSolver:  Solving for Ux, Initial residual = 0.00514246, Final residual = 0.000204239, No Iterations 4
smoothSolver:  Solving for Uy, Initial residual = 0.00610235, Final residual = 0.000227564, No Iterations 4
GAMG:  Solving for p, Initial residual = 0.0987865, Final residual = 0.009328, No Iterations 3
time step continuity errors : sum local = 0.000251242, global = 3.05484e-17, cumulative = -1.92109e-15
smoothSolver:  Solving for nuTilda, Initial residual = 0.00485738, Final residual = 0.000178708, No Iterations 4
bounding nuTilda, min: -0.00037959 max: 0.323532 average: 0.125967
ExecutionTime = 1.94 s  ClockTime = 2 s

Time = 97

smoothSolver:  Solving for Ux, Initial residual = 0.00523333, Final residual = 0.000207604, No Iterations 4
smoothSolver:  Solving for Uy, Initial residual = 0.0062377, Final residual = 0.000232093, No Iterations 4
GAMG:  Solving for p, Initial residual = 0.101642, Final residual = 0.00456275, No Iterations 4
time step continuity errors : sum local = 0.000126465, global = 1.29462e-16, cumulative = -1.79162e-15
smoothSolver:  Solving for nuTilda, Initial residual = 0.00493477, Final residual = 0.000181884, No Iterations 4
bounding nuTilda, min: -0.000340656 max: 0.328035 average: 0.126071
ExecutionTime = 1.95 s  ClockTime = 2 s

Time = 98

smoothSolver:  Solving for Ux, Initial residual = 0.00534952, Final residual = 0.000212752, No Iterations 4
smoothSolver:  Solving for Uy, Initial residual = 0.00641123, Final residual = 0.000236806, No Iterations 4
GAMG:  Solving for p, Initial residual = 0.10328, Final residual = 0.00945126, No Iterations 3
time step continuity errors : sum local = 0.00025784, global = -2.91037e-16, cumulative = -2.08266e-15
smoothSolver:  Solving for nuTilda, Initial residual = 0.00501632, Final residual = 0.000185484, No Iterations 4
bounding nuTilda, min: -0.000292948 max: 0.331801 average: 0.126177
ExecutionTime = 1.97 s  ClockTime = 2 s

Time = 99

smoothSolver:  Solving for Ux, Initial residual = 0.00543517, Final residual = 0.000216548, No Iterations 4
smoothSolver:  Solving for Uy, Initial residual = 0.00654991, Final residual = 0.000241959, No Iterations 4
GAMG:  Solving for p, Initial residual = 0.105078, Final residual = 0.0100176, No Iterations 3
time step continuity errors : sum local = 0.000273668, global = 2.13215e-16, cumulative = -1.86945e-15
smoothSolver:  Solving for nuTilda, Initial residual = 0.00510288, Final residual = 0.00018999, No Iterations 4
bounding nuTilda, min: -0.000500501 max: 0.334801 average: 0.126286
ExecutionTime = 1.99 s  ClockTime = 2 s

Time = 100

smoothSolver:  Solving for Ux, Initial residual = 0.0055326, Final residual = 0.00022003, No Iterations 4
smoothSolver:  Solving for Uy, Initial residual = 0.00669525, Final residual = 0.000246733, No Iterations 4
GAMG:  Solving for p, Initial residual = 0.107335, Final residual = 0.00441009, No Iterations 4
time step continuity errors : sum local = 0.000118657, global = 7.61763e-17, cumulative = -1.79327e-15
smoothSolver:  Solving for nuTilda, Initial residual = 0.00519119, Final residual = 0.00019532, No Iterations 4
bounding nuTilda, min: -0.000165493 max: 0.337006 average: 0.126395
ExecutionTime = 2.07 s  ClockTime = 2 s

Time = 101

smoothSolver:  Solving for Ux, Initial residual = 0.00565479, Final residual = 0.000223436, No Iterations 4
smoothSolver:  Solving for Uy, Initial residual = 0.00685449, Final residual = 0.00025079, No Iterations 4
GAMG:  Solving for p, Initial residual = 0.109114, Final residual = 0.0108223, No Iterations 3
time step continuity errors : sum local = 0.000290589, global = -1.58657e-16, cumulative = -1.95193e-15
smoothSolver:  Solving for nuTilda, Initial residual = 0.00527741, Final residual = 0.000201095, No Iterations 4
bounding nuTilda, min: -0.000106478 max: 0.338592 average: 0.126506
ExecutionTime = 2.08 s  ClockTime = 2 s

Time = 102

smoothSolver:  Solving for Ux, Initial residual = 0.00576678, Final residual = 0.000226955, No Iterations 4
smoothSolver:  Solving for Uy, Initial residual = 0.00698293, Final residual = 0.000254419, No Iterations 4
GAMG:  Solving for p, Initial residual = 0.111625, Final residual = 0.0110687, No Iterations 3
time step continuity errors : sum local = 0.000296326, global = -2.95192e-16, cumulative = -2.24712e-15
smoothSolver:  Solving for nuTilda, Initial residual = 0.00537057, Final residual = 0.000206461, No Iterations 4
bounding nuTilda, min: -0.00019448 max: 0.339597 average: 0.126618
ExecutionTime = 2.1 s  ClockTime = 2 s

Time = 103

smoothSolver:  Solving for Ux, Initial residual = 0.00587675, Final residual = 0.00023052, No Iterations 4
smoothSolver:  Solving for Uy, Initial residual = 0.00711439, Final residual = 0.000257314, No Iterations 4
GAMG:  Solving for p, Initial residual = 0.11499, Final residual = 0.0114704, No Iterations 3
time step continuity errors : sum local = 0.000307235, global = 7.27444e-16, cumulative = -1.51967e-15
smoothSolver:  Solving for nuTilda, Initial residual = 0.0054659, Final residual = 0.000211061, No Iterations 4
ExecutionTime = 2.12 s  ClockTime = 2 s

Time = 104

smoothSolver:  Solving for Ux, Initial residual = 0.00598328, Final residual = 0.000233632, No Iterations 4
smoothSolver:  Solving for Uy, Initial residual = 0.0072526, Final residual = 0.000259882, No Iterations 4
GAMG:  Solving for p, Initial residual = 0.117694, Final residual = 0.0116408, No Iterations 3
time step continuity errors : sum local = 0.000311997, global = -6.14271e-16, cumulative = -2.13394e-15
smoothSolver:  Solving for nuTilda, Initial residual = 0.00556976, Final residual = 0.000215724, No Iterations 4
bounding nuTilda, min: -0.000535594 max: 0.345139 average: 0.126845
ExecutionTime = 2.14 s  ClockTime = 2 s

Time = 105

smoothSolver:  Solving for Ux, Initial residual = 0.00608895, Final residual = 0.00023622, No Iterations 4
smoothSolver:  Solving for Uy, Initial residual = 0.00740221, Final residual = 0.000262424, No Iterations 4
GAMG:  Solving for p, Initial residual = 0.12002, Final residual = 0.0113489, No Iterations 3
time step continuity errors : sum local = 0.000304104, global = 2.52214e-16, cumulative = -1.88173e-15
smoothSolver:  Solving for nuTilda, Initial residual = 0.0056795, Final residual = 0.000220938, No Iterations 4
bounding nuTilda, min: -0.000152428 max: 0.348787 average: 0.126959
ExecutionTime = 2.16 s  ClockTime = 2 s

Time = 106

smoothSolver:  Solving for Ux, Initial residual = 0.00619315, Final residual = 0.000238338, No Iterations 4
smoothSolver:  Solving for Uy, Initial residual = 0.00755928, Final residual = 0.000265527, No Iterations 4
GAMG:  Solving for p, Initial residual = 0.122114, Final residual = 0.0109213, No Iterations 3
time step continuity errors : sum local = 0.000292268, global = -4.09138e-16, cumulative = -2.29087e-15
smoothSolver:  Solving for nuTilda, Initial residual = 0.00579141, Final residual = 0.000226209, No Iterations 4
bounding nuTilda, min: -0.000190243 max: 0.351474 average: 0.127073
ExecutionTime = 2.18 s  ClockTime = 2 s

Time = 107

smoothSolver:  Solving for Ux, Initial residual = 0.00630851, Final residual = 0.000241343, No Iterations 4
smoothSolver:  Solving for Uy, Initial residual = 0.00771546, Final residual = 0.000269381, No Iterations 4
GAMG:  Solving for p, Initial residual = 0.124361, Final residual = 0.0106473, No Iterations 3
time step continuity errors : sum local = 0.000284464, global = 5.0266e-16, cumulative = -1.78821e-15
smoothSolver:  Solving for nuTilda, Initial residual = 0.00591507, Final residual = 0.000232111, No Iterations 4
ExecutionTime = 2.2 s  ClockTime = 2 s

Time = 108

smoothSolver:  Solving for Ux, Initial residual = 0.00642507, Final residual = 0.000244478, No Iterations 4
smoothSolver:  Solving for Uy, Initial residual = 0.00787371, Final residual = 0.000273368, No Iterations 4
GAMG:  Solving for p, Initial residual = 0.125727, Final residual = 0.0104326, No Iterations 3
time step continuity errors : sum local = 0.000278289, global = -1.35648e-16, cumulative = -1.92386e-15
smoothSolver:  Solving for nuTilda, Initial residual = 0.00604302, Final residual = 0.000239563, No Iterations 4
ExecutionTime = 2.22 s  ClockTime = 2 s

Time = 109

smoothSolver:  Solving for Ux, Initial residual = 0.00653467, Final residual = 0.000247038, No Iterations 4
smoothSolver:  Solving for Uy, Initial residual = 0.00803892, Final residual = 0.000277616, No Iterations 4
GAMG:  Solving for p, Initial residual = 0.127516, Final residual = 0.0102628, No Iterations 3
time step continuity errors : sum local = 0.00027333, global = 1.84476e-16, cumulative = -1.73938e-15
smoothSolver:  Solving for nuTilda, Initial residual = 0.00617262, Final residual = 0.000245728, No Iterations 4
bounding nuTilda, min: -0.000190857 max: 0.354368 average: 0.127417
ExecutionTime = 2.24 s  ClockTime = 2 s

Time = 110

smoothSolver:  Solving for Ux, Initial residual = 0.00663901, Final residual = 0.000248806, No Iterations 4
smoothSolver:  Solving for Uy, Initial residual = 0.00819598, Final residual = 0.000281187, No Iterations 4
GAMG:  Solving for p, Initial residual = 0.129875, Final residual = 0.0105596, No Iterations 3
time step continuity errors : sum local = 0.000282076, global = 1.5801e-16, cumulative = -1.58137e-15
smoothSolver:  Solving for nuTilda, Initial residual = 0.00630518, Final residual = 0.000250442, No Iterations 4
ExecutionTime = 2.26 s  ClockTime = 2 s

Time = 111

smoothSolver:  Solving for Ux, Initial residual = 0.00674416, Final residual = 0.000250222, No Iterations 4
smoothSolver:  Solving for Uy, Initial residual = 0.00834351, Final residual = 0.000283861, No Iterations 4
GAMG:  Solving for p, Initial residual = 0.132699, Final residual = 0.0111583, No Iterations 3
time step continuity errors : sum local = 0.000299281, global = -6.76152e-16, cumulative = -2.25752e-15
smoothSolver:  Solving for nuTilda, Initial residual = 0.00644902, Final residual = 0.000256657, No Iterations 4
ExecutionTime = 2.27 s  ClockTime = 2 s

Time = 112

smoothSolver:  Solving for Ux, Initial residual = 0.00686067, Final residual = 0.000252377, No Iterations 4
smoothSolver:  Solving for Uy, Initial residual = 0.00848156, Final residual = 0.000285959, No Iterations 4
GAMG:  Solving for p, Initial residual = 0.136148, Final residual = 0.0117612, No Iterations 3
time step continuity errors : sum local = 0.000316691, global = -1.73006e-16, cumulative = -2.43053e-15
smoothSolver:  Solving for nuTilda, Initial residual = 0.00661377, Final residual = 0.000263831, No Iterations 4
ExecutionTime = 2.29 s  ClockTime = 2 s

Time = 113

smoothSolver:  Solving for Ux, Initial residual = 0.00697758, Final residual = 0.00025412, No Iterations 4
smoothSolver:  Solving for Uy, Initial residual = 0.00860902, Final residual = 0.000287665, No Iterations 4
GAMG:  Solving for p, Initial residual = 0.138435, Final residual = 0.012047, No Iterations 3
time step continuity errors : sum local = 0.000325872, global = 1.97915e-17, cumulative = -2.41074e-15
smoothSolver:  Solving for nuTilda, Initial residual = 0.00678482, Final residual = 0.000270639, No Iterations 4
ExecutionTime = 2.31 s  ClockTime = 2 s

Time = 114

smoothSolver:  Solving for Ux, Initial residual = 0.00708975, Final residual = 0.000255304, No Iterations 4
smoothSolver:  Solving for Uy, Initial residual = 0.00874325, Final residual = 0.000289479, No Iterations 4
GAMG:  Solving for p, Initial residual = 0.139898, Final residual = 0.0120057, No Iterations 3
time step continuity errors : sum local = 0.000326474, global = 1.17337e-16, cumulative = -2.2934e-15
smoothSolver:  Solving for nuTilda, Initial residual = 0.00695234, Final residual = 0.000277565, No Iterations 4
ExecutionTime = 2.33 s  ClockTime = 2 s

Time = 115

smoothSolver:  Solving for Ux, Initial residual = 0.00719743, Final residual = 0.000256096, No Iterations 4
smoothSolver:  Solving for Uy, Initial residual = 0.00888286, Final residual = 0.000291472, No Iterations 4
GAMG:  Solving for p, Initial residual = 0.139945, Final residual = 0.0118606, No Iterations 3
time step continuity errors : sum local = 0.000324663, global = 8.0354e-17, cumulative = -2.21305e-15
smoothSolver:  Solving for nuTilda, Initial residual = 0.00713794, Final residual = 0.000286205, No Iterations 4
ExecutionTime = 2.35 s  ClockTime = 2 s

Time = 116

smoothSolver:  Solving for Ux, Initial residual = 0.00731355, Final residual = 0.000257661, No Iterations 4
smoothSolver:  Solving for Uy, Initial residual = 0.00901699, Final residual = 0.000293913, No Iterations 4
GAMG:  Solving for p, Initial residual = 0.140886, Final residual = 0.0118712, No Iterations 3
time step continuity errors : sum local = 0.000326819, global = -1.31211e-16, cumulative = -2.34426e-15
smoothSolver:  Solving for nuTilda, Initial residual = 0.00731155, Final residual = 0.000292332, No Iterations 4
ExecutionTime = 2.37 s  ClockTime = 2 s

Time = 117

smoothSolver:  Solving for Ux, Initial residual = 0.00743534, Final residual = 0.000259348, No Iterations 4
smoothSolver:  Solving for Uy, Initial residual = 0.00915965, Final residual = 0.000296524, No Iterations 4
GAMG:  Solving for p, Initial residual = 0.141998, Final residual = 0.01209, No Iterations 3
time step continuity errors : sum local = 0.000334291, global = 8.47457e-16, cumulative = -1.4968e-15
smoothSolver:  Solving for nuTilda, Initial residual = 0.00751594, Final residual = 0.000299509, No Iterations 4
ExecutionTime = 2.38 s  ClockTime = 2 s

Time = 118

smoothSolver:  Solving for Ux, Initial residual = 0.00755722, Final residual = 0.00026079, No Iterations 4
smoothSolver:  Solving for Uy, Initial residual = 0.00930312, Final residual = 0.000298943, No Iterations 4
GAMG:  Solving for p, Initial residual = 0.143871, Final residual = 0.0123716, No Iterations 3
time step continuity errors : sum local = 0.000332827, global = -2.62744e-16, cumulative = -1.75954e-15
smoothSolver:  Solving for nuTilda, Initial residual = 0.0077287, Final residual = 0.000306505, No Iterations 4
ExecutionTime = 2.4 s  ClockTime = 2 s

Time = 119

smoothSolver:  Solving for Ux, Initial residual = 0.00767679, Final residual = 0.000261821, No Iterations 4
smoothSolver:  Solving for Uy, Initial residual = 0.00944695, Final residual = 0.000301673, No Iterations 4
GAMG:  Solving for p, Initial residual = 0.146363, Final residual = 0.012917, No Iterations 3
time step continuity errors : sum local = 0.000353923, global = 3.44079e-16, cumulative = -1.41546e-15
smoothSolver:  Solving for nuTilda, Initial residual = 0.00795268, Final residual = 0.000314371, No Iterations 4
ExecutionTime = 2.42 s  ClockTime = 2 s

Time = 120

smoothSolver:  Solving for Ux, Initial residual = 0.00780634, Final residual = 0.000262776, No Iterations 4
smoothSolver:  Solving for Uy, Initial residual = 0.00959594, Final residual = 0.000303746, No Iterations 4
GAMG:  Solving for p, Initial residual = 0.146883, Final residual = 0.0134034, No Iterations 3
time step continuity errors : sum local = 0.000369004, global = 2.16064e-16, cumulative = -1.1994e-15
smoothSolver:  Solving for nuTilda, Initial residual = 0.00818482, Final residual = 0.000322736, No Iterations 4
ExecutionTime = 2.44 s  ClockTime = 2 s

Time = 121

smoothSolver:  Solving for Ux, Initial residual = 0.00793957, Final residual = 0.000263875, No Iterations 4
smoothSolver:  Solving for Uy, Initial residual = 0.00973638, Final residual = 0.000305967, No Iterations 4
GAMG:  Solving for p, Initial residual = 0.14796, Final residual = 0.0136767, No Iterations 3
time step continuity errors : sum local = 0.00036955, global = 6.45154e-16, cumulative = -5.54246e-16
smoothSolver:  Solving for nuTilda, Initial residual = 0.00844595, Final residual = 0.000332638, No Iterations 4
ExecutionTime = 2.45 s  ClockTime = 2 s

Time = 122

smoothSolver:  Solving for Ux, Initial residual = 0.00807737, Final residual = 0.000265135, No Iterations 4
smoothSolver:  Solving for Uy, Initial residual = 0.00986561, Final residual = 0.000308198, No Iterations 4
GAMG:  Solving for p, Initial residual = 0.148946, Final residual = 0.0141276, No Iterations 3
time step continuity errors : sum local = 0.000388919, global = 9.24557e-17, cumulative = -4.6179e-16
smoothSolver:  Solving for nuTilda, Initial residual = 0.00870162, Final residual = 0.000340835, No Iterations 4
ExecutionTime = 2.47 s  ClockTime = 2 s

Time = 123

smoothSolver:  Solving for Ux, Initial residual = 0.00822523, Final residual = 0.000266359, No Iterations 4
smoothSolver:  Solving for Uy, Initial residual = 0.0100123, Final residual = 0.000310041, No Iterations 4
GAMG:  Solving for p, Initial residual = 0.150087, Final residual = 0.0141125, No Iterations 3
time step continuity errors : sum local = 0.000390861, global = -2.84996e-16, cumulative = -7.46786e-16
smoothSolver:  Solving for nuTilda, Initial residual = 0.00896825, Final residual = 0.000348011, No Iterations 4
ExecutionTime = 2.49 s  ClockTime = 2 s

Time = 124

smoothSolver:  Solving for Ux, Initial residual = 0.0083802, Final residual = 0.0002675, No Iterations 4
smoothSolver:  Solving for Uy, Initial residual = 0.0101637, Final residual = 0.000312248, No Iterations 4
GAMG:  Solving for p, Initial residual = 0.150595, Final residual = 0.0136684, No Iterations 3
time step continuity errors : sum local = 0.000369917, global = 3.22368e-16, cumulative = -4.24418e-16
smoothSolver:  Solving for nuTilda, Initial residual = 0.00923028, Final residual = 0.000356105, No Iterations 4
ExecutionTime = 2.51 s  ClockTime = 2 s

Time = 125

smoothSolver:  Solving for Ux, Initial residual = 0.00853671, Final residual = 0.000268591, No Iterations 4
smoothSolver:  Solving for Uy, Initial residual = 0.0103084, Final residual = 0.000315128, No Iterations 4
GAMG:  Solving for p, Initial residual = 0.151411, Final residual = 0.0137925, No Iterations 3
time step continuity errors : sum local = 0.000381034, global = 2.71351e-16, cumulative = -1.53067e-16
smoothSolver:  Solving for nuTilda, Initial residual = 0.00951035, Final residual = 0.000364283, No Iterations 4
ExecutionTime = 2.53 s  ClockTime = 2 s

Time = 126

smoothSolver:  Solving for Ux, Initial residual = 0.00869256, Final residual = 0.000269577, No Iterations 4
smoothSolver:  Solving for Uy, Initial residual = 0.0104574, Final residual = 0.000317871, No Iterations 4
GAMG:  Solving for p, Initial residual = 0.152357, Final residual = 0.0137766, No Iterations 3
time step continuity errors : sum local = 0.000382533, global = 9.10446e-18, cumulative = -1.43963e-16
smoothSolver:  Solving for nuTilda, Initial residual = 0.00981812, Final residual = 0.000373923, No Iterations 4
ExecutionTime = 2.55 s  ClockTime = 2 s

Time = 127

smoothSolver:  Solving for Ux, Initial residual = 0.00884615, Final residual = 0.000270391, No Iterations 4
[...]
smoothSolver:  Solving for Uy, Initial residual = 0.00635927, Final residual = 0.000249989, No Iterations 4
GAMG:  Solving for p, Initial residual = 0.0542998, Final residual = 0.00302535, No Iterations 5
time step continuity errors : sum local = 6.33378e-05, global = -2.28457e-16, cumulative = 6.38086e-15
smoothSolver:  Solving for nuTilda, Initial residual = 0.00654405, Final residual = 0.000257348, No Iterations 4
bounding nuTilda, min: -8.08052e-05 max: 0.349037 average: 0.13962
ExecutionTime = 9.57 s  ClockTime = 9 s

Time = 470

smoothSolver:  Solving for Ux, Initial residual = 0.00446867, Final residual = 0.000154538, No Iterations 4
smoothSolver:  Solving for Uy, Initial residual = 0.00636721, Final residual = 0.000249636, No Iterations 4
GAMG:  Solving for p, Initial residual = 0.0540884, Final residual = 0.00374654, No Iterations 5
time step continuity errors : sum local = 7.95277e-05, global = 1.43538e-16, cumulative = 6.5244e-15
smoothSolver:  Solving for nuTilda, Initial residual = 0.00647643, Final residual = 0.000256261, No Iterations 4
bounding nuTilda, min: -7.64348e-05 max: 0.349155 average: 0.139651
ExecutionTime = 9.59 s  ClockTime = 9 s

Time = 471

smoothSolver:  Solving for Ux, Initial residual = 0.00443178, Final residual = 0.000153019, No Iterations 4
smoothSolver:  Solving for Uy, Initial residual = 0.00637382, Final residual = 0.000248867, No Iterations 4
GAMG:  Solving for p, Initial residual = 0.0537957, Final residual = 0.00298572, No Iterations 5
time step continuity errors : sum local = 6.25127e-05, global = 5.78664e-16, cumulative = 7.10307e-15
smoothSolver:  Solving for nuTilda, Initial residual = 0.00640685, Final residual = 0.000255022, No Iterations 4
bounding nuTilda, min: -3.57722e-05 max: 0.350159 average: 0.139687
ExecutionTime = 9.61 s  ClockTime = 9 s

Time = 472

smoothSolver:  Solving for Ux, Initial residual = 0.00439473, Final residual = 0.000151525, No Iterations 4
smoothSolver:  Solving for Uy, Initial residual = 0.00638731, Final residual = 0.000248414, No Iterations 4
GAMG:  Solving for p, Initial residual = 0.0536394, Final residual = 0.00299763, No Iterations 5
time step continuity errors : sum local = 6.26528e-05, global = -5.07236e-16, cumulative = 6.59583e-15
smoothSolver:  Solving for nuTilda, Initial residual = 0.0063356, Final residual = 0.000253267, No Iterations 4
bounding nuTilda, min: -9.0843e-05 max: 0.351296 average: 0.139727
ExecutionTime = 9.64 s  ClockTime = 9 s

Time = 473

smoothSolver:  Solving for Ux, Initial residual = 0.00436023, Final residual = 0.000149968, No Iterations 4
smoothSolver:  Solving for Uy, Initial residual = 0.00640585, Final residual = 0.00024786, No Iterations 4
GAMG:  Solving for p, Initial residual = 0.0536345, Final residual = 0.0039288, No Iterations 5
time step continuity errors : sum local = 8.30785e-05, global = -4.61568e-16, cumulative = 6.13426e-15
smoothSolver:  Solving for nuTilda, Initial residual = 0.00627069, Final residual = 0.00025078, No Iterations 4
bounding nuTilda, min: -2.55085e-05 max: 0.352318 average: 0.139774
ExecutionTime = 9.66 s  ClockTime = 9 s

Time = 474

smoothSolver:  Solving for Ux, Initial residual = 0.00432955, Final residual = 0.000148245, No Iterations 4
smoothSolver:  Solving for Uy, Initial residual = 0.00642672, Final residual = 0.000246874, No Iterations 4
GAMG:  Solving for p, Initial residual = 0.0533601, Final residual = 0.00292588, No Iterations 5
time step continuity errors : sum local = 6.10001e-05, global = 5.90962e-16, cumulative = 6.72522e-15
smoothSolver:  Solving for nuTilda, Initial residual = 0.00619866, Final residual = 0.000248714, No Iterations 4
ExecutionTime = 9.68 s  ClockTime = 9 s

Time = 475

smoothSolver:  Solving for Ux, Initial residual = 0.00429765, Final residual = 0.000146559, No Iterations 4
smoothSolver:  Solving for Uy, Initial residual = 0.00645471, Final residual = 0.000246206, No Iterations 4
GAMG:  Solving for p, Initial residual = 0.0536747, Final residual = 0.00294627, No Iterations 5
time step continuity errors : sum local = 6.118e-05, global = 3.34155e-17, cumulative = 6.75864e-15
smoothSolver:  Solving for nuTilda, Initial residual = 0.00612578, Final residual = 0.000246804, No Iterations 4
bounding nuTilda, min: -0.000579242 max: 0.354152 average: 0.139886
ExecutionTime = 9.71 s  ClockTime = 9 s

Time = 476

smoothSolver:  Solving for Ux, Initial residual = 0.00426981, Final residual = 0.000144801, No Iterations 4
smoothSolver:  Solving for Uy, Initial residual = 0.0064886, Final residual = 0.000245317, No Iterations 4
GAMG:  Solving for p, Initial residual = 0.0538738, Final residual = 0.00409228, No Iterations 5
time step continuity errors : sum local = 8.57981e-05, global = 1.34589e-16, cumulative = 6.89323e-15
smoothSolver:  Solving for nuTilda, Initial residual = 0.00605291, Final residual = 0.000244893, No Iterations 4
bounding nuTilda, min: -1.34052e-05 max: 0.354888 average: 0.13995
ExecutionTime = 9.73 s  ClockTime = 9 s

Time = 477

smoothSolver:  Solving for Ux, Initial residual = 0.00424684, Final residual = 0.000142911, No Iterations 4
smoothSolver:  Solving for Uy, Initial residual = 0.00652516, Final residual = 0.000243938, No Iterations 4
GAMG:  Solving for p, Initial residual = 0.0541461, Final residual = 0.00286522, No Iterations 5
time step continuity errors : sum local = 5.91661e-05, global = 2.00452e-16, cumulative = 7.09368e-15
smoothSolver:  Solving for nuTilda, Initial residual = 0.00598942, Final residual = 0.000243322, No Iterations 4
bounding nuTilda, min: -4.95958e-06 max: 0.355567 average: 0.14002
ExecutionTime = 9.75 s  ClockTime = 9 s

Time = 478

smoothSolver:  Solving for Ux, Initial residual = 0.00422278, Final residual = 0.000141067, No Iterations 4
smoothSolver:  Solving for Uy, Initial residual = 0.00657176, Final residual = 0.000242961, No Iterations 4
GAMG:  Solving for p, Initial residual = 0.054299, Final residual = 0.00288452, No Iterations 5
time step continuity errors : sum local = 5.92539e-05, global = 2.48152e-16, cumulative = 7.34183e-15
smoothSolver:  Solving for nuTilda, Initial residual = 0.00592328, Final residual = 0.000241375, No Iterations 4
ExecutionTime = 9.77 s  ClockTime = 9 s

Time = 479

smoothSolver:  Solving for Ux, Initial residual = 0.00420307, Final residual = 0.00013918, No Iterations 4
smoothSolver:  Solving for Uy, Initial residual = 0.00662545, Final residual = 0.000241939, No Iterations 4
GAMG:  Solving for p, Initial residual = 0.0550846, Final residual = 0.00419771, No Iterations 5
time step continuity errors : sum local = 8.68876e-05, global = -3.87059e-16, cumulative = 6.95477e-15
smoothSolver:  Solving for nuTilda, Initial residual = 0.00585413, Final residual = 0.000239084, No Iterations 4
bounding nuTilda, min: -0.000507655 max: 0.356413 average: 0.140176
ExecutionTime = 9.79 s  ClockTime = 9 s

Time = 480

smoothSolver:  Solving for Ux, Initial residual = 0.00418638, Final residual = 0.000137202, No Iterations 4
smoothSolver:  Solving for Uy, Initial residual = 0.00668244, Final residual = 0.000240663, No Iterations 4
GAMG:  Solving for p, Initial residual = 0.0555628, Final residual = 0.00307924, No Iterations 5
time step continuity errors : sum local = 6.27537e-05, global = 6.67728e-16, cumulative = 7.6225e-15
smoothSolver:  Solving for nuTilda, Initial residual = 0.00578464, Final residual = 0.000236529, No Iterations 4
bounding nuTilda, min: -8.70409e-05 max: 0.356642 average: 0.140262
ExecutionTime = 9.81 s  ClockTime = 9 s

Time = 481

smoothSolver:  Solving for Ux, Initial residual = 0.00416772, Final residual = 0.000135285, No Iterations 4
smoothSolver:  Solving for Uy, Initial residual = 0.00675008, Final residual = 0.000240369, No Iterations 4
GAMG:  Solving for p, Initial residual = 0.0563134, Final residual = 0.00332853, No Iterations 5
time step continuity errors : sum local = 6.73817e-05, global = 4.99354e-16, cumulative = 8.12186e-15
smoothSolver:  Solving for nuTilda, Initial residual = 0.00571128, Final residual = 0.00023353, No Iterations 4
bounding nuTilda, min: -0.000397761 max: 0.357741 average: 0.140354
ExecutionTime = 9.83 s  ClockTime = 9 s

Time = 482

smoothSolver:  Solving for Ux, Initial residual = 0.00415216, Final residual = 0.000133372, No Iterations 4
smoothSolver:  Solving for Uy, Initial residual = 0.00682489, Final residual = 0.000240654, No Iterations 4
GAMG:  Solving for p, Initial residual = 0.0569386, Final residual = 0.00475079, No Iterations 5
time step continuity errors : sum local = 9.66817e-05, global = -8.17589e-17, cumulative = 8.0401e-15
smoothSolver:  Solving for nuTilda, Initial residual = 0.00563596, Final residual = 0.000230349, No Iterations 4
ExecutionTime = 9.85 s  ClockTime = 10 s

Time = 483

smoothSolver:  Solving for Ux, Initial residual = 0.00413953, Final residual = 0.000131397, No Iterations 4
smoothSolver:  Solving for Uy, Initial residual = 0.00691456, Final residual = 0.000241984, No Iterations 4
GAMG:  Solving for p, Initial residual = 0.058224, Final residual = 0.00380023, No Iterations 5
time step continuity errors : sum local = 7.61806e-05, global = -3.2875e-16, cumulative = 7.71135e-15
smoothSolver:  Solving for nuTilda, Initial residual = 0.00556022, Final residual = 0.000226651, No Iterations 4
bounding nuTilda, min: -0.000305304 max: 0.360207 average: 0.140554
ExecutionTime = 9.87 s  ClockTime = 10 s

Time = 484

smoothSolver:  Solving for Ux, Initial residual = 0.00412433, Final residual = 0.000129493, No Iterations 4
smoothSolver:  Solving for Uy, Initial residual = 0.00700357, Final residual = 0.000243999, No Iterations 4
GAMG:  Solving for p, Initial residual = 0.0589078, Final residual = 0.00407983, No Iterations 5
time step continuity errors : sum local = 8.12727e-05, global = 9.0325e-16, cumulative = 8.6146e-15
smoothSolver:  Solving for nuTilda, Initial residual = 0.00548688, Final residual = 0.000222865, No Iterations 4
bounding nuTilda, min: -2.57876e-05 max: 0.36113 average: 0.140664
ExecutionTime = 9.89 s  ClockTime = 10 s

Time = 485

smoothSolver:  Solving for Ux, Initial residual = 0.00411237, Final residual = 0.000127597, No Iterations 4
smoothSolver:  Solving for Uy, Initial residual = 0.00710528, Final residual = 0.00024664, No Iterations 4
GAMG:  Solving for p, Initial residual = 0.0601236, Final residual = 0.00540399, No Iterations 5
time step continuity errors : sum local = 0.000108002, global = -3.91253e-17, cumulative = 8.57547e-15
smoothSolver:  Solving for nuTilda, Initial residual = 0.00541049, Final residual = 0.00021922, No Iterations 4
bounding nuTilda, min: -0.000221823 max: 0.36197 average: 0.140781
ExecutionTime = 9.91 s  ClockTime = 10 s

Time = 486

smoothSolver:  Solving for Ux, Initial residual = 0.00410287, Final residual = 0.000125723, No Iterations 4
smoothSolver:  Solving for Uy, Initial residual = 0.00721687, Final residual = 0.000249661, No Iterations 4
GAMG:  Solving for p, Initial residual = 0.0611201, Final residual = 0.0045625, No Iterations 5
time step continuity errors : sum local = 8.99382e-05, global = -1.3137e-17, cumulative = 8.56233e-15
smoothSolver:  Solving for nuTilda, Initial residual = 0.00533664, Final residual = 0.00021566, No Iterations 4
ExecutionTime = 9.93 s  ClockTime = 10 s

Time = 487

smoothSolver:  Solving for Ux, Initial residual = 0.00409184, Final residual = 0.000123994, No Iterations 4
smoothSolver:  Solving for Uy, Initial residual = 0.00731321, Final residual = 0.000252124, No Iterations 4
GAMG:  Solving for p, Initial residual = 0.0623115, Final residual = 0.0057458, No Iterations 5
time step continuity errors : sum local = 0.000113697, global = -3.51405e-16, cumulative = 8.21093e-15
smoothSolver:  Solving for nuTilda, Initial residual = 0.00527196, Final residual = 0.00021234, No Iterations 4
bounding nuTilda, min: -0.000152946 max: 0.363068 average: 0.141031
ExecutionTime = 9.95 s  ClockTime = 10 s

Time = 488

smoothSolver:  Solving for Ux, Initial residual = 0.0040845, Final residual = 0.000122392, No Iterations 4
smoothSolver:  Solving for Uy, Initial residual = 0.00740276, Final residual = 0.000254187, No Iterations 4
GAMG:  Solving for p, Initial residual = 0.063198, Final residual = 0.00500441, No Iterations 5
time step continuity errors : sum local = 9.75594e-05, global = -2.12931e-16, cumulative = 7.998e-15
smoothSolver:  Solving for nuTilda, Initial residual = 0.00521101, Final residual = 0.000209184, No Iterations 4
bounding nuTilda, min: -4.7011e-05 max: 0.363418 average: 0.141166
ExecutionTime = 9.97 s  ClockTime = 10 s

Time = 489

smoothSolver:  Solving for Ux, Initial residual = 0.00407688, Final residual = 0.000120908, No Iterations 4
smoothSolver:  Solving for Uy, Initial residual = 0.00748307, Final residual = 0.000256299, No Iterations 4
GAMG:  Solving for p, Initial residual = 0.0644472, Final residual = 0.00609374, No Iterations 5
time step continuity errors : sum local = 0.000119124, global = -5.02174e-18, cumulative = 7.99298e-15
smoothSolver:  Solving for nuTilda, Initial residual = 0.00515773, Final residual = 0.000206055, No Iterations 4
bounding nuTilda, min: -9.11299e-05 max: 0.363609 average: 0.141305
ExecutionTime = 9.99 s  ClockTime = 10 s

Time = 490

smoothSolver:  Solving for Ux, Initial residual = 0.00407357, Final residual = 0.000119594, No Iterations 4
smoothSolver:  Solving for Uy, Initial residual = 0.00756554, Final residual = 0.000258927, No Iterations 4
GAMG:  Solving for p, Initial residual = 0.0653468, Final residual = 0.00542033, No Iterations 5
time step continuity errors : sum local = 0.00010442, global = -1.66668e-16, cumulative = 7.82631e-15
smoothSolver:  Solving for nuTilda, Initial residual = 0.00511921, Final residual = 0.000203513, No Iterations 4
ExecutionTime = 10.01 s  ClockTime = 10 s

Time = 491

smoothSolver:  Solving for Ux, Initial residual = 0.00406834, Final residual = 0.000118452, No Iterations 4
smoothSolver:  Solving for Uy, Initial residual = 0.00763401, Final residual = 0.000261174, No Iterations 4
GAMG:  Solving for p, Initial residual = 0.0665385, Final residual = 0.00640469, No Iterations 5
time step continuity errors : sum local = 0.000123621, global = -2.11322e-16, cumulative = 7.61499e-15
smoothSolver:  Solving for nuTilda, Initial residual = 0.00508495, Final residual = 0.000200868, No Iterations 4
bounding nuTilda, min: -4.10071e-05 max: 0.366378 average: 0.141597
ExecutionTime = 10.03 s  ClockTime = 10 s

Time = 492

smoothSolver:  Solving for Ux, Initial residual = 0.00406707, Final residual = 0.000117605, No Iterations 4
smoothSolver:  Solving for Uy, Initial residual = 0.00769855, Final residual = 0.0002629, No Iterations 4
GAMG:  Solving for p, Initial residual = 0.0673057, Final residual = 0.00647227, No Iterations 5
time step continuity errors : sum local = 0.000124589, global = 6.96516e-17, cumulative = 7.68464e-15
smoothSolver:  Solving for nuTilda, Initial residual = 0.00504927, Final residual = 0.000197728, No Iterations 4
bounding nuTilda, min: -3.08099e-05 max: 0.367366 average: 0.141749
ExecutionTime = 10.05 s  ClockTime = 10 s

Time = 493

smoothSolver:  Solving for Ux, Initial residual = 0.00406805, Final residual = 0.000116998, No Iterations 4
smoothSolver:  Solving for Uy, Initial residual = 0.00775108, Final residual = 0.000263925, No Iterations 4
GAMG:  Solving for p, Initial residual = 0.0683899, Final residual = 0.0057976, No Iterations 5
time step continuity errors : sum local = 0.000109893, global = 2.94246e-16, cumulative = 7.97888e-15
smoothSolver:  Solving for nuTilda, Initial residual = 0.00501313, Final residual = 0.000194199, No Iterations 4
ExecutionTime = 10.07 s  ClockTime = 10 s

Time = 494

smoothSolver:  Solving for Ux, Initial residual = 0.00406873, Final residual = 0.000116528, No Iterations 4
smoothSolver:  Solving for Uy, Initial residual = 0.00778359, Final residual = 0.000264214, No Iterations 4
GAMG:  Solving for p, Initial residual = 0.0688538, Final residual = 0.00658385, No Iterations 5
time step continuity errors : sum local = 0.000125138, global = -1.60643e-16, cumulative = 7.81824e-15
smoothSolver:  Solving for nuTilda, Initial residual = 0.00497729, Final residual = 0.000190894, No Iterations 4
bounding nuTilda, min: -0.00027913 max: 0.368701 average: 0.14207
ExecutionTime = 10.09 s  ClockTime = 10 s

Time = 495

smoothSolver:  Solving for Ux, Initial residual = 0.00407426, Final residual = 0.000116307, No Iterations 4
smoothSolver:  Solving for Uy, Initial residual = 0.00780707, Final residual = 0.000264123, No Iterations 4
GAMG:  Solving for p, Initial residual = 0.069673, Final residual = 0.00661684, No Iterations 5
time step continuity errors : sum local = 0.000125285, global = -3.85725e-16, cumulative = 7.43252e-15
smoothSolver:  Solving for nuTilda, Initial residual = 0.00494994, Final residual = 0.000188015, No Iterations 4
ExecutionTime = 10.11 s  ClockTime = 10 s

Time = 496

smoothSolver:  Solving for Ux, Initial residual = 0.00407918, Final residual = 0.000116111, No Iterations 4
smoothSolver:  Solving for Uy, Initial residual = 0.00782684, Final residual = 0.000264503, No Iterations 4
GAMG:  Solving for p, Initial residual = 0.0700495, Final residual = 0.00659177, No Iterations 5
time step continuity errors : sum local = 0.000124678, global = -1.50028e-16, cumulative = 7.28249e-15
smoothSolver:  Solving for nuTilda, Initial residual = 0.00492715, Final residual = 0.000185262, No Iterations 4
ExecutionTime = 10.13 s  ClockTime = 10 s

Time = 497

smoothSolver:  Solving for Ux, Initial residual = 0.0040851, Final residual = 0.000115961, No Iterations 4
smoothSolver:  Solving for Uy, Initial residual = 0.00784094, Final residual = 0.000265199, No Iterations 4
GAMG:  Solving for p, Initial residual = 0.0704955, Final residual = 0.00592232, No Iterations 5
time step continuity errors : sum local = 0.000110271, global = -1.0516e-16, cumulative = 7.17733e-15
smoothSolver:  Solving for nuTilda, Initial residual = 0.00490852, Final residual = 0.000182481, No Iterations 4
bounding nuTilda, min: -0.00018145 max: 0.370014 average: 0.142587
ExecutionTime = 10.15 s  ClockTime = 10 s

Time = 498

smoothSolver:  Solving for Ux, Initial residual = 0.00409004, Final residual = 0.000115792, No Iterations 4
smoothSolver:  Solving for Uy, Initial residual = 0.00784486, Final residual = 0.00026553, No Iterations 4
GAMG:  Solving for p, Initial residual = 0.0704504, Final residual = 0.0064786, No Iterations 5
time step continuity errors : sum local = 0.000121017, global = -3.81253e-16, cumulative = 6.79608e-15
smoothSolver:  Solving for nuTilda, Initial residual = 0.00489534, Final residual = 0.000179764, No Iterations 4
ExecutionTime = 10.17 s  ClockTime = 10 s

Time = 499

smoothSolver:  Solving for Ux, Initial residual = 0.0040974, Final residual = 0.000115807, No Iterations 4
smoothSolver:  Solving for Uy, Initial residual = 0.00784376, Final residual = 0.00026539, No Iterations 4
GAMG:  Solving for p, Initial residual = 0.0706345, Final residual = 0.00637561, No Iterations 5
time step continuity errors : sum local = 0.000118735, global = -2.24338e-16, cumulative = 6.57174e-15
smoothSolver:  Solving for nuTilda, Initial residual = 0.0048904, Final residual = 0.000177281, No Iterations 4
ExecutionTime = 10.19 s  ClockTime = 10 s

Time = 500

smoothSolver:  Solving for Ux, Initial residual = 0.00410517, Final residual = 0.000116007, No Iterations 4
smoothSolver:  Solving for Uy, Initial residual = 0.00783064, Final residual = 0.000264708, No Iterations 4
GAMG:  Solving for p, Initial residual = 0.0705333, Final residual = 0.00622125, No Iterations 5
time step continuity errors : sum local = 0.000115809, global = -3.46795e-16, cumulative = 6.22494e-15
smoothSolver:  Solving for nuTilda, Initial residual = 0.00488506, Final residual = 0.000174722, No Iterations 4
bounding nuTilda, min: -0.000111618 max: 0.373112 average: 0.143136
ExecutionTime = 10.25 s  ClockTime = 10 s

End

