/*---------------------------------------------------------------------------*\
| =========                 |                                                 |
| \\      /  F ield         | OpenFOAM: The Open Source CFD Toolbox           |
|  \\    /   O peration     | Version:  5.x                                   |
|   \\  /    A nd           | Web:      www.OpenFOAM.org                      |
|    \\/     M anipulation  |                                                 |
\*---------------------------------------------------------------------------*/
Build  : 5.x-68e8507efb72
Exec   : simpleFoam
Date   : Apr 05 2022
Time   : 10:27:02
Host   : "Desktop-PC"
PID    : 19700
I/O    : uncollated
Case   : /home/emilio/code/flow-separation-prediction/openfoam/run/Airfold2D_full
nProcs : 1
sigFpe : Enabling floating point exception trapping (FOAM_SIGFPE).
fileModificationChecking : Monitoring run-time modified files using timeStampMaster (fileModificationSkew 10)
allowSystemOperations : Allowing user-supplied system call operations

// * * * * * * * * * * * * * * * * * * * * * * * * * * * * * * * * * * * * * //
Create time

Create mesh for time = 0


SIMPLE: convergence criteria
    field p	 tolerance 1e-05
    field U	 tolerance 1e-05
    field nuTilda	 tolerance 1e-05

Reading field p

Reading field U

Reading/calculating face flux field phi

Selecting incompressible transport model Newtonian
Selecting turbulence model type RAS
Selecting RAS turbulence model SpalartAllmaras
Selecting patchDistMethod meshWave
RAS
{
    RASModel        SpalartAllmaras;
    turbulence      on;
    printCoeffs     on;
    sigmaNut        0.66666;
    kappa           0.41;
    Cb1             0.1355;
    Cb2             0.622;
    Cw2             0.3;
    Cw3             2;
    Cv1             7.1;
    Cs              0.3;
}

No MRF models present

No finite volume options present


Starting time loop

Time = 1

smoothSolver:  Solving for Ux, Initial residual = 1, Final residual = 0.095825, No Iterations 2
smoothSolver:  Solving for Uy, Initial residual = 1, Final residual = 0.0827631, No Iterations 2
GAMG:  Solving for p, Initial residual = 1, Final residual = 0.0570461, No Iterations 14
time step continuity errors : sum local = 0.00675106, global = -7.15883e-15, cumulative = -7.15883e-15
smoothSolver:  Solving for nuTilda, Initial residual = 1, Final residual = 0.0168263, No Iterations 2
ExecutionTime = 0.39 s  ClockTime = 1 s

Time = 2

smoothSolver:  Solving for Ux, Initial residual = 0.543804, Final residual = 0.0281321, No Iterations 4
smoothSolver:  Solving for Uy, Initial residual = 0.571446, Final residual = 0.0427706, No Iterations 4
GAMG:  Solving for p, Initial residual = 0.889894, Final residual = 0.0758165, No Iterations 6
time step continuity errors : sum local = 0.0329673, global = 2.15194e-15, cumulative = -5.00688e-15
smoothSolver:  Solving for nuTilda, Initial residual = 0.170325, Final residual = 0.00857791, No Iterations 2
ExecutionTime = 0.47 s  ClockTime = 1 s

Time = 3

smoothSolver:  Solving for Ux, Initial residual = 0.160999, Final residual = 0.00697646, No Iterations 4
smoothSolver:  Solving for Uy, Initial residual = 0.165587, Final residual = 0.0119529, No Iterations 4
GAMG:  Solving for p, Initial residual = 0.818564, Final residual = 0.0372312, No Iterations 9
time step continuity errors : sum local = 0.0244706, global = -1.54614e-17, cumulative = -5.02235e-15
smoothSolver:  Solving for nuTilda, Initial residual = 0.0721786, Final residual = 0.00138353, No Iterations 4
ExecutionTime = 0.56 s  ClockTime = 1 s

Time = 4

smoothSolver:  Solving for Ux, Initial residual = 0.0441467, Final residual = 0.00188682, No Iterations 4
smoothSolver:  Solving for Uy, Initial residual = 0.0492294, Final residual = 0.00329624, No Iterations 4
GAMG:  Solving for p, Initial residual = 0.885488, Final residual = 0.0347104, No Iterations 8
time step continuity errors : sum local = 0.0209953, global = 3.45375e-15, cumulative = -1.5686e-15
smoothSolver:  Solving for nuTilda, Initial residual = 0.0414764, Final residual = 0.0012392, No Iterations 4
ExecutionTime = 0.64 s  ClockTime = 1 s

Time = 5

smoothSolver:  Solving for Ux, Initial residual = 0.14547, Final residual = 0.00638896, No Iterations 4
smoothSolver:  Solving for Uy, Initial residual = 0.166147, Final residual = 0.0120389, No Iterations 4
GAMG:  Solving for p, Initial residual = 0.775297, Final residual = 0.0731796, No Iterations 7
time step continuity errors : sum local = 0.0427746, global = 1.82698e-15, cumulative = 2.58379e-16
smoothSolver:  Solving for nuTilda, Initial residual = 0.0270305, Final residual = 0.000982251, No Iterations 4
ExecutionTime = 0.72 s  ClockTime = 1 s

Time = 6

smoothSolver:  Solving for Ux, Initial residual = 0.181449, Final residual = 0.00509752, No Iterations 4
smoothSolver:  Solving for Uy, Initial residual = 0.170283, Final residual = 0.0105137, No Iterations 4
GAMG:  Solving for p, Initial residual = 0.786113, Final residual = 0.0754468, No Iterations 13
time step continuity errors : sum local = 0.0501671, global = -1.23542e-14, cumulative = -1.20958e-14
smoothSolver:  Solving for nuTilda, Initial residual = 0.0182104, Final residual = 0.000727945, No Iterations 4
ExecutionTime = 0.82 s  ClockTime = 1 s

Time = 7

smoothSolver:  Solving for Ux, Initial residual = 0.107231, Final residual = 0.00393896, No Iterations 4
smoothSolver:  Solving for Uy, Initial residual = 0.158259, Final residual = 0.0107697, No Iterations 4
GAMG:  Solving for p, Initial residual = 0.667205, Final residual = 0.0615622, No Iterations 10
time step continuity errors : sum local = 0.0372257, global = 2.86547e-15, cumulative = -9.23037e-15
smoothSolver:  Solving for nuTilda, Initial residual = 0.0125115, Final residual = 0.000528781, No Iterations 4
ExecutionTime = 0.92 s  ClockTime = 1 s

Time = 8

smoothSolver:  Solving for Ux, Initial residual = 0.105207, Final residual = 0.00392289, No Iterations 4
smoothSolver:  Solving for Uy, Initial residual = 0.11703, Final residual = 0.00805938, No Iterations 4
GAMG:  Solving for p, Initial residual = 0.753807, Final residual = 0.0680179, No Iterations 9
time step continuity errors : sum local = 0.0449245, global = -2.36281e-15, cumulative = -1.15932e-14
smoothSolver:  Solving for nuTilda, Initial residual = 0.0087829, Final residual = 0.000384569, No Iterations 4
ExecutionTime = 1.01 s  ClockTime = 1 s

Time = 9

smoothSolver:  Solving for Ux, Initial residual = 0.0599198, Final residual = 0.00404346, No Iterations 2
smoothSolver:  Solving for Uy, Initial residual = 0.0306291, Final residual = 0.00140791, No Iterations 4
GAMG:  Solving for p, Initial residual = 0.721201, Final residual = 0.0702855, No Iterations 7
time step continuity errors : sum local = 0.0454454, global = 7.83062e-15, cumulative = -3.76256e-15
smoothSolver:  Solving for nuTilda, Initial residual = 0.00629312, Final residual = 0.000281891, No Iterations 4
ExecutionTime = 1.09 s  ClockTime = 1 s

Time = 10

smoothSolver:  Solving for Ux, Initial residual = 0.03907, Final residual = 0.0011071, No Iterations 4
smoothSolver:  Solving for Uy, Initial residual = 0.0396889, Final residual = 0.00250882, No Iterations 4
GAMG:  Solving for p, Initial residual = 0.820433, Final residual = 0.0678787, No Iterations 8
time step continuity errors : sum local = 0.0346155, global = 3.05819e-14, cumulative = 2.68194e-14
smoothSolver:  Solving for nuTilda, Initial residual = 0.00460276, Final residual = 0.000208874, No Iterations 4
ExecutionTime = 1.18 s  ClockTime = 1 s

Time = 11

smoothSolver:  Solving for Ux, Initial residual = 0.0475569, Final residual = 0.00138723, No Iterations 4
smoothSolver:  Solving for Uy, Initial residual = 0.0539697, Final residual = 0.00343896, No Iterations 4
GAMG:  Solving for p, Initial residual = 0.716884, Final residual = 0.0600876, No Iterations 6
time step continuity errors : sum local = 0.0341552, global = -3.75852e-14, cumulative = -1.07658e-14
smoothSolver:  Solving for nuTilda, Initial residual = 0.00343873, Final residual = 0.000156342, No Iterations 4
ExecutionTime = 1.25 s  ClockTime = 1 s

Time = 12

smoothSolver:  Solving for Ux, Initial residual = 0.0421431, Final residual = 0.00204838, No Iterations 2
smoothSolver:  Solving for Uy, Initial residual = 0.0280047, Final residual = 0.000972678, No Iterations 4
GAMG:  Solving for p, Initial residual = 0.686311, Final residual = 0.0674425, No Iterations 8
time step continuity errors : sum local = 0.0376376, global = 1.05055e-14, cumulative = -2.60306e-16
smoothSolver:  Solving for nuTilda, Initial residual = 0.00262136, Final residual = 0.000118578, No Iterations 4
ExecutionTime = 1.34 s  ClockTime = 1 s

Time = 13

smoothSolver:  Solving for Ux, Initial residual = 0.0368083, Final residual = 0.00363936, No Iterations 2
smoothSolver:  Solving for Uy, Initial residual = 0.0415505, Final residual = 0.0025138, No Iterations 4
GAMG:  Solving for p, Initial residual = 0.62154, Final residual = 0.0516187, No Iterations 8
time step continuity errors : sum local = 0.0248964, global = -1.63029e-14, cumulative = -1.65632e-14
smoothSolver:  Solving for nuTilda, Initial residual = 0.00203885, Final residual = 9.08459e-05, No Iterations 4
ExecutionTime = 1.43 s  ClockTime = 2 s

Time = 14

smoothSolver:  Solving for Ux, Initial residual = 0.0330768, Final residual = 0.00278087, No Iterations 2
smoothSolver:  Solving for Uy, Initial residual = 0.0258951, Final residual = 0.00140317, No Iterations 4
GAMG:  Solving for p, Initial residual = 0.74717, Final residual = 0.0635279, No Iterations 6
time step continuity errors : sum local = 0.0285278, global = 1.49542e-14, cumulative = -1.60902e-15
smoothSolver:  Solving for nuTilda, Initial residual = 0.0016149, Final residual = 7.04102e-05, No Iterations 4
ExecutionTime = 1.5 s  ClockTime = 2 s

Time = 15

smoothSolver:  Solving for Ux, Initial residual = 0.0245262, Final residual = 0.00105235, No Iterations 2
smoothSolver:  Solving for Uy, Initial residual = 0.0107303, Final residual = 0.000320682, No Iterations 4
GAMG:  Solving for p, Initial residual = 0.706286, Final residual = 0.0316915, No Iterations 7
time step continuity errors : sum local = 0.0133241, global = -4.31172e-15, cumulative = -5.92074e-15
smoothSolver:  Solving for nuTilda, Initial residual = 0.00130356, Final residual = 5.51976e-05, No Iterations 4
ExecutionTime = 1.58 s  ClockTime = 2 s

Time = 16

smoothSolver:  Solving for Ux, Initial residual = 0.0210482, Final residual = 0.0016521, No Iterations 2
smoothSolver:  Solving for Uy, Initial residual = 0.0179884, Final residual = 0.000956174, No Iterations 4
GAMG:  Solving for p, Initial residual = 0.63306, Final residual = 0.0578275, No Iterations 5
time step continuity errors : sum local = 0.0223281, global = 3.6899e-15, cumulative = -2.23084e-15
smoothSolver:  Solving for nuTilda, Initial residual = 0.00107264, Final residual = 4.37298e-05, No Iterations 4
ExecutionTime = 1.66 s  ClockTime = 2 s

Time = 17

smoothSolver:  Solving for Ux, Initial residual = 0.0178478, Final residual = 0.00130952, No Iterations 2
smoothSolver:  Solving for Uy, Initial residual = 0.0155096, Final residual = 0.000757621, No Iterations 4
GAMG:  Solving for p, Initial residual = 0.651992, Final residual = 0.0632007, No Iterations 6
time step continuity errors : sum local = 0.0252753, global = -7.99501e-15, cumulative = -1.02258e-14
smoothSolver:  Solving for nuTilda, Initial residual = 0.000900308, Final residual = 3.51129e-05, No Iterations 4
ExecutionTime = 1.74 s  ClockTime = 2 s

Time = 18

smoothSolver:  Solving for Ux, Initial residual = 0.0165313, Final residual = 0.000661764, No Iterations 2
smoothSolver:  Solving for Uy, Initial residual = 0.0134307, Final residual = 0.000455261, No Iterations 4
GAMG:  Solving for p, Initial residual = 0.690419, Final residual = 0.0520695, No Iterations 7
time step continuity errors : sum local = 0.0176867, global = -3.33503e-16, cumulative = -1.05594e-14
smoothSolver:  Solving for nuTilda, Initial residual = 0.000770002, Final residual = 2.84805e-05, No Iterations 4
bounding nuTilda, min: -0.00629905 max: 0.145581 average: 0.122394
ExecutionTime = 1.82 s  ClockTime = 2 s

Time = 19

smoothSolver:  Solving for Ux, Initial residual = 0.0156542, Final residual = 0.000974884, No Iterations 2
smoothSolver:  Solving for Uy, Initial residual = 0.0139079, Final residual = 0.000624678, No Iterations 4
GAMG:  Solving for p, Initial residual = 0.634779, Final residual = 0.0535351, No Iterations 5
time step continuity errors : sum local = 0.0171849, global = 9.97846e-15, cumulative = -5.80891e-16
smoothSolver:  Solving for nuTilda, Initial residual = 0.000671797, Final residual = 2.33895e-05, No Iterations 4
bounding nuTilda, min: -0.00943496 max: 0.145739 average: 0.122173
ExecutionTime = 1.9 s  ClockTime = 2 s

Time = 20

smoothSolver:  Solving for Ux, Initial residual = 0.0127747, Final residual = 0.000726291, No Iterations 2
smoothSolver:  Solving for Uy, Initial residual = 0.00809603, Final residual = 0.000242773, No Iterations 4
GAMG:  Solving for p, Initial residual = 0.605659, Final residual = 0.0532964, No Iterations 5
time step continuity errors : sum local = 0.0182551, global = 1.27639e-14, cumulative = 1.2183e-14
smoothSolver:  Solving for nuTilda, Initial residual = 0.000597037, Final residual = 1.94447e-05, No Iterations 4
bounding nuTilda, min: -0.00941844 max: 0.145981 average: 0.121975
ExecutionTime = 1.97 s  ClockTime = 2 s

Time = 21

smoothSolver:  Solving for Ux, Initial residual = 0.0104027, Final residual = 0.000457152, No Iterations 2
smoothSolver:  Solving for Uy, Initial residual = 0.00628194, Final residual = 0.000197404, No Iterations 4
GAMG:  Solving for p, Initial residual = 0.592941, Final residual = 0.049742, No Iterations 5
time step continuity errors : sum local = 0.0152461, global = 2.55897e-14, cumulative = 3.77727e-14
smoothSolver:  Solving for nuTilda, Initial residual = 0.000538535, Final residual = 1.63253e-05, No Iterations 4
bounding nuTilda, min: -0.0113051 max: 0.146202 average: 0.121797
ExecutionTime = 2.05 s  ClockTime = 2 s

Time = 22

smoothSolver:  Solving for Ux, Initial residual = 0.0103693, Final residual = 0.000566659, No Iterations 2
smoothSolver:  Solving for Uy, Initial residual = 0.00830532, Final residual = 0.000300802, No Iterations 4
GAMG:  Solving for p, Initial residual = 0.648039, Final residual = 0.0512661, No Iterations 5
time step continuity errors : sum local = 0.0138901, global = 3.58907e-15, cumulative = 4.13618e-14
smoothSolver:  Solving for nuTilda, Initial residual = 0.000493246, Final residual = 1.3925e-05, No Iterations 4
bounding nuTilda, min: -0.0118702 max: 0.146397 average: 0.121637
ExecutionTime = 2.13 s  ClockTime = 2 s

Time = 23

smoothSolver:  Solving for Ux, Initial residual = 0.00920525, Final residual = 0.000429386, No Iterations 2
smoothSolver:  Solving for Uy, Initial residual = 0.00632236, Final residual = 0.000173468, No Iterations 4
GAMG:  Solving for p, Initial residual = 0.662338, Final residual = 0.0353315, No Iterations 6
time step continuity errors : sum local = 0.00884021, global = 2.24008e-15, cumulative = 4.36018e-14
smoothSolver:  Solving for nuTilda, Initial residual = 0.000456809, Final residual = 1.20127e-05, No Iterations 4
bounding nuTilda, min: -0.011962 max: 0.146566 average: 0.121493
ExecutionTime = 2.2 s  ClockTime = 2 s

Time = 24

smoothSolver:  Solving for Ux, Initial residual = 0.00775802, Final residual = 0.000327835, No Iterations 2
smoothSolver:  Solving for Uy, Initial residual = 0.00586127, Final residual = 0.00018285, No Iterations 4
GAMG:  Solving for p, Initial residual = 0.577544, Final residual = 0.0573315, No Iterations 4
time step continuity errors : sum local = 0.0142644, global = 1.03768e-14, cumulative = 5.39786e-14
smoothSolver:  Solving for nuTilda, Initial residual = 0.000428686, Final residual = 1.04741e-05, No Iterations 4
bounding nuTilda, min: -0.011398 max: 0.146762 average: 0.121365
ExecutionTime = 2.28 s  ClockTime = 2 s

Time = 25

smoothSolver:  Solving for Ux, Initial residual = 0.00698586, Final residual = 0.000338797, No Iterations 2
smoothSolver:  Solving for Uy, Initial residual = 0.00555379, Final residual = 0.000173456, No Iterations 4
GAMG:  Solving for p, Initial residual = 0.558774, Final residual = 0.0428162, No Iterations 5
time step continuity errors : sum local = 0.0112446, global = -1.95179e-15, cumulative = 5.20268e-14
smoothSolver:  Solving for nuTilda, Initial residual = 0.000407075, Final residual = 9.23588e-06, No Iterations 4
bounding nuTilda, min: -0.0124254 max: 0.147013 average: 0.121248
ExecutionTime = 2.35 s  ClockTime = 3 s

Time = 26

smoothSolver:  Solving for Ux, Initial residual = 0.00697169, Final residual = 0.000276859, No Iterations 2
smoothSolver:  Solving for Uy, Initial residual = 0.00454319, Final residual = 0.000360995, No Iterations 2
GAMG:  Solving for p, Initial residual = 0.581493, Final residual = 0.0375064, No Iterations 7
time step continuity errors : sum local = 0.00851186, global = -3.91927e-15, cumulative = 4.81076e-14
smoothSolver:  Solving for nuTilda, Initial residual = 0.000390521, Final residual = 3.88368e-05, No Iterations 2
bounding nuTilda, min: -0.0117044 max: 0.147247 average: 0.121156
ExecutionTime = 2.43 s  ClockTime = 3 s

Time = 27

smoothSolver:  Solving for Ux, Initial residual = 0.00583856, Final residual = 0.000213313, No Iterations 2
smoothSolver:  Solving for Uy, Initial residual = 0.00444591, Final residual = 0.000437564, No Iterations 2
GAMG:  Solving for p, Initial residual = 0.547243, Final residual = 0.0442145, No Iterations 5
time step continuity errors : sum local = 0.00953981, global = -3.62808e-15, cumulative = 4.44795e-14
smoothSolver:  Solving for nuTilda, Initial residual = 0.000379872, Final residual = 3.6107e-05, No Iterations 2
bounding nuTilda, min: -0.011042 max: 0.147459 average: 0.121072
ExecutionTime = 2.5 s  ClockTime = 3 s

Time = 28

smoothSolver:  Solving for Ux, Initial residual = 0.00490212, Final residual = 0.000222992, No Iterations 2
smoothSolver:  Solving for Uy, Initial residual = 0.00445933, Final residual = 0.000127633, No Iterations 4
GAMG:  Solving for p, Initial residual = 0.514646, Final residual = 0.0464083, No Iterations 4
time step continuity errors : sum local = 0.0106522, global = 1.32339e-14, cumulative = 5.77134e-14
smoothSolver:  Solving for nuTilda, Initial residual = 0.000371325, Final residual = 3.38123e-05, No Iterations 2
bounding nuTilda, min: -0.0108167 max: 0.147654 average: 0.120994
ExecutionTime = 2.58 s  ClockTime = 3 s

Time = 29

smoothSolver:  Solving for Ux, Initial residual = 0.00487153, Final residual = 0.000201771, No Iterations 2
smoothSolver:  Solving for Uy, Initial residual = 0.00392819, Final residual = 0.000342091, No Iterations 2
GAMG:  Solving for p, Initial residual = 0.484224, Final residual = 0.0426437, No Iterations 5
time step continuity errors : sum local = 0.00937602, global = -1.2637e-14, cumulative = 4.50764e-14
smoothSolver:  Solving for nuTilda, Initial residual = 0.000363663, Final residual = 3.18665e-05, No Iterations 2
bounding nuTilda, min: -0.0119626 max: 0.147832 average: 0.120921
ExecutionTime = 2.65 s  ClockTime = 3 s

Time = 30

smoothSolver:  Solving for Ux, Initial residual = 0.0048541, Final residual = 0.000191924, No Iterations 2
smoothSolver:  Solving for Uy, Initial residual = 0.00401809, Final residual = 0.000349733, No Iterations 2
GAMG:  Solving for p, Initial residual = 0.513125, Final residual = 0.036436, No Iterations 5
time step continuity errors : sum local = 0.00698973, global = 8.00872e-15, cumulative = 5.30851e-14
smoothSolver:  Solving for nuTilda, Initial residual = 0.000357866, Final residual = 3.03046e-05, No Iterations 2
bounding nuTilda, min: -0.0122205 max: 0.148105 average: 0.120855
ExecutionTime = 2.73 s  ClockTime = 3 s

Time = 31

smoothSolver:  Solving for Ux, Initial residual = 0.0043216, Final residual = 0.000175038, No Iterations 2
smoothSolver:  Solving for Uy, Initial residual = 0.00353458, Final residual = 0.000315923, No Iterations 2
GAMG:  Solving for p, Initial residual = 0.55092, Final residual = 0.0376449, No Iterations 5
time step continuity errors : sum local = 0.00662774, global = 5.87369e-15, cumulative = 5.89588e-14
smoothSolver:  Solving for nuTilda, Initial residual = 0.000352891, Final residual = 2.89676e-05, No Iterations 2
bounding nuTilda, min: -0.0117073 max: 0.14837 average: 0.120793
ExecutionTime = 2.8 s  ClockTime = 3 s

Time = 32

smoothSolver:  Solving for Ux, Initial residual = 0.00382266, Final residual = 0.000146325, No Iterations 2
smoothSolver:  Solving for Uy, Initial residual = 0.00311279, Final residual = 0.00025126, No Iterations 2
GAMG:  Solving for p, Initial residual = 0.548944, Final residual = 0.0474282, No Iterations 4
time step continuity errors : sum local = 0.00766822, global = 4.05564e-15, cumulative = 6.30145e-14
smoothSolver:  Solving for nuTilda, Initial residual = 0.000349155, Final residual = 2.78956e-05, No Iterations 2
bounding nuTilda, min: -0.0118983 max: 0.148618 average: 0.120735
ExecutionTime = 2.87 s  ClockTime = 3 s

Time = 33

smoothSolver:  Solving for Ux, Initial residual = 0.00347136, Final residual = 0.000128829, No Iterations 2
smoothSolver:  Solving for Uy, Initial residual = 0.00323731, Final residual = 0.000287511, No Iterations 2
GAMG:  Solving for p, Initial residual = 0.535439, Final residual = 0.0374337, No Iterations 5
time step continuity errors : sum local = 0.00586437, global = 6.71926e-15, cumulative = 6.97337e-14
smoothSolver:  Solving for nuTilda, Initial residual = 0.000345466, Final residual = 2.69088e-05, No Iterations 2
bounding nuTilda, min: -0.0115835 max: 0.148849 average: 0.120682
ExecutionTime = 2.94 s  ClockTime = 3 s

Time = 34

smoothSolver:  Solving for Ux, Initial residual = 0.00325147, Final residual = 0.000124388, No Iterations 2
smoothSolver:  Solving for Uy, Initial residual = 0.00346712, Final residual = 0.000316954, No Iterations 2
GAMG:  Solving for p, Initial residual = 0.514231, Final residual = 0.0393289, No Iterations 5
time step continuity errors : sum local = 0.00620898, global = -2.68873e-15, cumulative = 6.7045e-14
smoothSolver:  Solving for nuTilda, Initial residual = 0.000342474, Final residual = 2.61042e-05, No Iterations 2
bounding nuTilda, min: -0.0113891 max: 0.149073 average: 0.120631
ExecutionTime = 3.02 s  ClockTime = 3 s

Time = 35

smoothSolver:  Solving for Ux, Initial residual = 0.00321443, Final residual = 0.000120673, No Iterations 2
smoothSolver:  Solving for Uy, Initial residual = 0.00322714, Final residual = 0.000280691, No Iterations 2
GAMG:  Solving for p, Initial residual = 0.470416, Final residual = 0.0367641, No Iterations 5
time step continuity errors : sum local = 0.00593735, global = 2.49974e-14, cumulative = 9.20424e-14
smoothSolver:  Solving for nuTilda, Initial residual = 0.000339196, Final residual = 2.53829e-05, No Iterations 2
bounding nuTilda, min: -0.0116389 max: 0.149284 average: 0.120584
ExecutionTime = 3.09 s  ClockTime = 3 s

Time = 36

smoothSolver:  Solving for Ux, Initial residual = 0.00311887, Final residual = 0.000118753, No Iterations 2
smoothSolver:  Solving for Uy, Initial residual = 0.00300046, Final residual = 0.000252198, No Iterations 2
GAMG:  Solving for p, Initial residual = 0.435976, Final residual = 0.0368832, No Iterations 5
time step continuity errors : sum local = 0.0060226, global = 1.37671e-14, cumulative = 1.05809e-13
smoothSolver:  Solving for nuTilda, Initial residual = 0.000336453, Final residual = 2.48094e-05, No Iterations 2
bounding nuTilda, min: -0.0116431 max: 0.149555 average: 0.120539
ExecutionTime = 3.17 s  ClockTime = 3 s

Time = 37

smoothSolver:  Solving for Ux, Initial residual = 0.00297653, Final residual = 0.000118633, No Iterations 2
smoothSolver:  Solving for Uy, Initial residual = 0.00282628, Final residual = 0.000226636, No Iterations 2
GAMG:  Solving for p, Initial residual = 0.418162, Final residual = 0.032657, No Iterations 4
time step continuity errors : sum local = 0.00539168, global = 2.83056e-14, cumulative = 1.34115e-13
smoothSolver:  Solving for nuTilda, Initial residual = 0.000333704, Final residual = 2.43055e-05, No Iterations 2
bounding nuTilda, min: -0.0120163 max: 0.149856 average: 0.120498
ExecutionTime = 3.24 s  ClockTime = 3 s

Time = 38

smoothSolver:  Solving for Ux, Initial residual = 0.00283656, Final residual = 0.000112653, No Iterations 2
smoothSolver:  Solving for Uy, Initial residual = 0.00274259, Final residual = 0.000210205, No Iterations 2
GAMG:  Solving for p, Initial residual = 0.408421, Final residual = 0.0342846, No Iterations 4
time step continuity errors : sum local = 0.00545535, global = -1.80826e-15, cumulative = 1.32307e-13
smoothSolver:  Solving for nuTilda, Initial residual = 0.000331413, Final residual = 2.39029e-05, No Iterations 2
bounding nuTilda, min: -0.0120798 max: 0.150143 average: 0.120458
ExecutionTime = 3.31 s  ClockTime = 3 s

Time = 39

smoothSolver:  Solving for Ux, Initial residual = 0.00266205, Final residual = 0.00010374, No Iterations 2
smoothSolver:  Solving for Uy, Initial residual = 0.00277239, Final residual = 0.000218121, No Iterations 2
GAMG:  Solving for p, Initial residual = 0.400037, Final residual = 0.0334689, No Iterations 4
time step continuity errors : sum local = 0.0051825, global = -2.38147e-14, cumulative = 1.08492e-13
smoothSolver:  Solving for nuTilda, Initial residual = 0.000329156, Final residual = 2.35478e-05, No Iterations 2
bounding nuTilda, min: -0.011561 max: 0.150416 average: 0.120421
ExecutionTime = 3.38 s  ClockTime = 4 s

Time = 40

smoothSolver:  Solving for Ux, Initial residual = 0.00252198, Final residual = 9.64436e-05, No Iterations 2
smoothSolver:  Solving for Uy, Initial residual = 0.00277791, Final residual = 0.000232781, No Iterations 2
GAMG:  Solving for p, Initial residual = 0.398742, Final residual = 0.0324382, No Iterations 4
time step continuity errors : sum local = 0.00492205, global = -4.29516e-15, cumulative = 1.04197e-13
smoothSolver:  Solving for nuTilda, Initial residual = 0.000327263, Final residual = 2.32451e-05, No Iterations 2
bounding nuTilda, min: -0.0113553 max: 0.150692 average: 0.120386
ExecutionTime = 3.45 s  ClockTime = 4 s

Time = 41

smoothSolver:  Solving for Ux, Initial residual = 0.00242841, Final residual = 9.15695e-05, No Iterations 2
smoothSolver:  Solving for Uy, Initial residual = 0.00268325, Final residual = 0.00023008, No Iterations 2
GAMG:  Solving for p, Initial residual = 0.390705, Final residual = 0.0341924, No Iterations 4
time step continuity errors : sum local = 0.00505333, global = 4.6338e-16, cumulative = 1.0466e-13
smoothSolver:  Solving for nuTilda, Initial residual = 0.000325289, Final residual = 2.29634e-05, No Iterations 2
bounding nuTilda, min: -0.0121645 max: 0.150959 average: 0.120352
ExecutionTime = 3.53 s  ClockTime = 4 s

Time = 42

smoothSolver:  Solving for Ux, Initial residual = 0.00237599, Final residual = 8.88274e-05, No Iterations 2
smoothSolver:  Solving for Uy, Initial residual = 0.00257213, Final residual = 0.000220092, No Iterations 2
GAMG:  Solving for p, Initial residual = 0.380988, Final residual = 0.0370122, No Iterations 4
time step continuity errors : sum local = 0.005335, global = -1.54905e-16, cumulative = 1.04505e-13
smoothSolver:  Solving for nuTilda, Initial residual = 0.000323429, Final residual = 2.2735e-05, No Iterations 2
bounding nuTilda, min: -0.0114417 max: 0.151217 average: 0.120319
ExecutionTime = 3.6 s  ClockTime = 4 s

Time = 43

smoothSolver:  Solving for Ux, Initial residual = 0.00233926, Final residual = 8.76087e-05, No Iterations 2
smoothSolver:  Solving for Uy, Initial residual = 0.00252249, Final residual = 0.000210504, No Iterations 2
GAMG:  Solving for p, Initial residual = 0.375726, Final residual = 0.0332121, No Iterations 4
time step continuity errors : sum local = 0.00472722, global = 4.23185e-15, cumulative = 1.08737e-13
smoothSolver:  Solving for nuTilda, Initial residual = 0.00032138, Final residual = 2.25349e-05, No Iterations 2
bounding nuTilda, min: -0.0110719 max: 0.151522 average: 0.120288
ExecutionTime = 3.67 s  ClockTime = 4 s

Time = 44

smoothSolver:  Solving for Ux, Initial residual = 0.00226588, Final residual = 8.61856e-05, No Iterations 2
smoothSolver:  Solving for Uy, Initial residual = 0.00246265, Final residual = 0.000198254, No Iterations 2
GAMG:  Solving for p, Initial residual = 0.363293, Final residual = 0.0299193, No Iterations 4
time step continuity errors : sum local = 0.00422118, global = -7.69326e-15, cumulative = 1.01044e-13
smoothSolver:  Solving for nuTilda, Initial residual = 0.000319272, Final residual = 2.23697e-05, No Iterations 2
bounding nuTilda, min: -0.0113714 max: 0.151862 average: 0.120258
ExecutionTime = 3.75 s  ClockTime = 4 s

Time = 45

smoothSolver:  Solving for Ux, Initial residual = 0.00218484, Final residual = 8.44621e-05, No Iterations 2
smoothSolver:  Solving for Uy, Initial residual = 0.00243334, Final residual = 0.00019381, No Iterations 2
GAMG:  Solving for p, Initial residual = 0.348854, Final residual = 0.0279574, No Iterations 4
time step continuity errors : sum local = 0.00393091, global = 9.25628e-15, cumulative = 1.103e-13
smoothSolver:  Solving for nuTilda, Initial residual = 0.000317017, Final residual = 2.2224e-05, No Iterations 2
bounding nuTilda, min: -0.0114815 max: 0.1522 average: 0.120229
ExecutionTime = 3.81 s  ClockTime = 4 s

Time = 46

smoothSolver:  Solving for Ux, Initial residual = 0.00210529, Final residual = 8.23738e-05, No Iterations 2
smoothSolver:  Solving for Uy, Initial residual = 0.00241802, Final residual = 0.000196602, No Iterations 2
GAMG:  Solving for p, Initial residual = 0.336612, Final residual = 0.027585, No Iterations 4
time step continuity errors : sum local = 0.003904, global = 2.16917e-15, cumulative = 1.12469e-13
smoothSolver:  Solving for nuTilda, Initial residual = 0.000314912, Final residual = 2.21295e-05, No Iterations 2
bounding nuTilda, min: -0.0120954 max: 0.15254 average: 0.120202
ExecutionTime = 3.88 s  ClockTime = 4 s

Time = 47

smoothSolver:  Solving for Ux, Initial residual = 0.00204037, Final residual = 8.01559e-05, No Iterations 2
smoothSolver:  Solving for Uy, Initial residual = 0.00238864, Final residual = 0.000197298, No Iterations 2
GAMG:  Solving for p, Initial residual = 0.325527, Final residual = 0.0291057, No Iterations 4
time step continuity errors : sum local = 0.00411862, global = 3.91907e-15, cumulative = 1.16388e-13
smoothSolver:  Solving for nuTilda, Initial residual = 0.000312787, Final residual = 2.20594e-05, No Iterations 2
bounding nuTilda, min: -0.01178 max: 0.152873 average: 0.120175
ExecutionTime = 3.95 s  ClockTime = 4 s

Time = 48

smoothSolver:  Solving for Ux, Initial residual = 0.00199081, Final residual = 7.79211e-05, No Iterations 2
smoothSolver:  Solving for Uy, Initial residual = 0.00236051, Final residual = 0.000193907, No Iterations 2
GAMG:  Solving for p, Initial residual = 0.318744, Final residual = 0.0273746, No Iterations 4
time step continuity errors : sum local = 0.00382497, global = -1.03646e-14, cumulative = 1.06024e-13
smoothSolver:  Solving for nuTilda, Initial residual = 0.000310826, Final residual = 2.20175e-05, No Iterations 2
bounding nuTilda, min: -0.01163 max: 0.153212 average: 0.120149
ExecutionTime = 4.02 s  ClockTime = 4 s

Time = 49

smoothSolver:  Solving for Ux, Initial residual = 0.00194989, Final residual = 7.56138e-05, No Iterations 2
smoothSolver:  Solving for Uy, Initial residual = 0.00232563, Final residual = 0.000189022, No Iterations 2
GAMG:  Solving for p, Initial residual = 0.313954, Final residual = 0.0271854, No Iterations 4
time step continuity errors : sum local = 0.003752, global = 1.98153e-15, cumulative = 1.08005e-13
smoothSolver:  Solving for nuTilda, Initial residual = 0.000308744, Final residual = 2.19728e-05, No Iterations 2
bounding nuTilda, min: -0.0122939 max: 0.153557 average: 0.120124
ExecutionTime = 4.09 s  ClockTime = 4 s

Time = 50

smoothSolver:  Solving for Ux, Initial residual = 0.00191582, Final residual = 7.33284e-05, No Iterations 2
smoothSolver:  Solving for Uy, Initial residual = 0.00227271, Final residual = 0.000183917, No Iterations 2
GAMG:  Solving for p, Initial residual = 0.307164, Final residual = 0.0290645, No Iterations 4
time step continuity errors : sum local = 0.00395895, global = 3.90768e-15, cumulative = 1.11913e-13
smoothSolver:  Solving for nuTilda, Initial residual = 0.000306746, Final residual = 2.19596e-05, No Iterations 2
bounding nuTilda, min: -0.0114417 max: 0.153897 average: 0.120099
ExecutionTime = 4.31 s  ClockTime = 4 s

Time = 51

smoothSolver:  Solving for Ux, Initial residual = 0.00186494, Final residual = 7.14093e-05, No Iterations 2
smoothSolver:  Solving for Uy, Initial residual = 0.00221306, Final residual = 0.000181976, No Iterations 2
GAMG:  Solving for p, Initial residual = 0.299872, Final residual = 0.0212645, No Iterations 5
time step continuity errors : sum local = 0.00288306, global = 5.58027e-15, cumulative = 1.17493e-13
smoothSolver:  Solving for nuTilda, Initial residual = 0.000304754, Final residual = 2.19586e-05, No Iterations 2
bounding nuTilda, min: -0.0111774 max: 0.154254 average: 0.120076
ExecutionTime = 4.39 s  ClockTime = 5 s

Time = 52

smoothSolver:  Solving for Ux, Initial residual = 0.00180757, Final residual = 7.10765e-05, No Iterations 2
smoothSolver:  Solving for Uy, Initial residual = 0.00218027, Final residual = 0.00017992, No Iterations 2
GAMG:  Solving for p, Initial residual = 0.290301, Final residual = 0.027445, No Iterations 4
time step continuity errors : sum local = 0.00371689, global = 1.15007e-15, cumulative = 1.18643e-13
smoothSolver:  Solving for nuTilda, Initial residual = 0.000303059, Final residual = 2.19838e-05, No Iterations 2
bounding nuTilda, min: -0.0108393 max: 0.154642 average: 0.120052
ExecutionTime = 4.45 s  ClockTime = 5 s

Time = 53

smoothSolver:  Solving for Ux, Initial residual = 0.00176375, Final residual = 7.023e-05, No Iterations 2
smoothSolver:  Solving for Uy, Initial residual = 0.00215246, Final residual = 0.000177179, No Iterations 2
GAMG:  Solving for p, Initial residual = 0.286596, Final residual = 0.025884, No Iterations 4
time step continuity errors : sum local = 0.0034587, global = 1.97756e-14, cumulative = 1.38419e-13
smoothSolver:  Solving for nuTilda, Initial residual = 0.000301402, Final residual = 2.20103e-05, No Iterations 2
bounding nuTilda, min: -0.0110356 max: 0.155068 average: 0.120029
ExecutionTime = 4.52 s  ClockTime = 5 s

Time = 54

smoothSolver:  Solving for Ux, Initial residual = 0.00172072, Final residual = 6.89996e-05, No Iterations 2
smoothSolver:  Solving for Uy, Initial residual = 0.00212646, Final residual = 0.000173457, No Iterations 2
GAMG:  Solving for p, Initial residual = 0.281515, Final residual = 0.0255685, No Iterations 4
time step continuity errors : sum local = 0.00337769, global = -2.77361e-14, cumulative = 1.10683e-13
smoothSolver:  Solving for nuTilda, Initial residual = 0.000300073, Final residual = 2.20747e-05, No Iterations 2
bounding nuTilda, min: -0.0115281 max: 0.155496 average: 0.120007
ExecutionTime = 4.59 s  ClockTime = 5 s

Time = 55

smoothSolver:  Solving for Ux, Initial residual = 0.00168906, Final residual = 6.77016e-05, No Iterations 2
smoothSolver:  Solving for Uy, Initial residual = 0.00209857, Final residual = 0.000169523, No Iterations 2
GAMG:  Solving for p, Initial residual = 0.27563, Final residual = 0.0258678, No Iterations 4
time step continuity errors : sum local = 0.00338359, global = 9.18069e-16, cumulative = 1.11601e-13
smoothSolver:  Solving for nuTilda, Initial residual = 0.000298836, Final residual = 2.2147e-05, No Iterations 2
bounding nuTilda, min: -0.01201 max: 0.15593 average: 0.119985
ExecutionTime = 4.66 s  ClockTime = 5 s

Time = 56

smoothSolver:  Solving for Ux, Initial residual = 0.00165607, Final residual = 6.62299e-05, No Iterations 2
smoothSolver:  Solving for Uy, Initial residual = 0.00206597, Final residual = 0.000166445, No Iterations 2
GAMG:  Solving for p, Initial residual = 0.269799, Final residual = 0.0249006, No Iterations 4
time step continuity errors : sum local = 0.00322859, global = -1.38325e-14, cumulative = 9.77685e-14
smoothSolver:  Solving for nuTilda, Initial residual = 0.000297821, Final residual = 2.22345e-05, No Iterations 2
bounding nuTilda, min: -0.0116669 max: 0.156382 average: 0.119963
ExecutionTime = 4.73 s  ClockTime = 5 s

Time = 57

smoothSolver:  Solving for Ux, Initial residual = 0.00162392, Final residual = 6.45718e-05, No Iterations 2
smoothSolver:  Solving for Uy, Initial residual = 0.00203192, Final residual = 0.000165434, No Iterations 2
GAMG:  Solving for p, Initial residual = 0.262866, Final residual = 0.0223884, No Iterations 4
time step continuity errors : sum local = 0.00288796, global = 5.31532e-15, cumulative = 1.03084e-13
smoothSolver:  Solving for nuTilda, Initial residual = 0.000296768, Final residual = 2.2305e-05, No Iterations 2
bounding nuTilda, min: -0.0119182 max: 0.15683 average: 0.119941
ExecutionTime = 4.79 s  ClockTime = 5 s

Time = 58

smoothSolver:  Solving for Ux, Initial residual = 0.00159177, Final residual = 6.30448e-05, No Iterations 2
smoothSolver:  Solving for Uy, Initial residual = 0.00199661, Final residual = 0.000165211, No Iterations 2
GAMG:  Solving for p, Initial residual = 0.255952, Final residual = 0.025362, No Iterations 3
time step continuity errors : sum local = 0.00325474, global = 1.44398e-14, cumulative = 1.17524e-13
smoothSolver:  Solving for nuTilda, Initial residual = 0.000296005, Final residual = 2.23839e-05, No Iterations 2
bounding nuTilda, min: -0.0114816 max: 0.157312 average: 0.11992
ExecutionTime = 4.87 s  ClockTime = 5 s

Time = 59

smoothSolver:  Solving for Ux, Initial residual = 0.00155514, Final residual = 6.16416e-05, No Iterations 2
smoothSolver:  Solving for Uy, Initial residual = 0.00197269, Final residual = 0.000163637, No Iterations 2
GAMG:  Solving for p, Initial residual = 0.246884, Final residual = 0.0207378, No Iterations 4
time step continuity errors : sum local = 0.00264159, global = -9.47323e-15, cumulative = 1.0805e-13
smoothSolver:  Solving for nuTilda, Initial residual = 0.000295186, Final residual = 2.2451e-05, No Iterations 2
bounding nuTilda, min: -0.0107687 max: 0.157794 average: 0.1199
ExecutionTime = 4.94 s  ClockTime = 5 s

Time = 60

smoothSolver:  Solving for Ux, Initial residual = 0.00152105, Final residual = 6.12068e-05, No Iterations 2
smoothSolver:  Solving for Uy, Initial residual = 0.00193956, Final residual = 0.000162388, No Iterations 2
GAMG:  Solving for p, Initial residual = 0.242009, Final residual = 0.0234487, No Iterations 4
time step continuity errors : sum local = 0.00298151, global = -1.25122e-14, cumulative = 9.55382e-14
smoothSolver:  Solving for nuTilda, Initial residual = 0.000294783, Final residual = 2.25331e-05, No Iterations 2
bounding nuTilda, min: -0.0104626 max: 0.158299 average: 0.119879
ExecutionTime = 5 s  ClockTime = 5 s

Time = 61

smoothSolver:  Solving for Ux, Initial residual = 0.00148761, Final residual = 6.08153e-05, No Iterations 2
smoothSolver:  Solving for Uy, Initial residual = 0.00190616, Final residual = 0.000158579, No Iterations 2
GAMG:  Solving for p, Initial residual = 0.237761, Final residual = 0.0217794, No Iterations 4
time step continuity errors : sum local = 0.00276402, global = -2.3879e-17, cumulative = 9.55144e-14
smoothSolver:  Solving for nuTilda, Initial residual = 0.000294484, Final residual = 2.26102e-05, No Iterations 2
bounding nuTilda, min: -0.0103893 max: 0.15882 average: 0.119859
ExecutionTime = 5.07 s  ClockTime = 5 s

Time = 62

smoothSolver:  Solving for Ux, Initial residual = 0.00145516, Final residual = 6.01994e-05, No Iterations 2
smoothSolver:  Solving for Uy, Initial residual = 0.00187333, Final residual = 0.000153586, No Iterations 2
GAMG:  Solving for p, Initial residual = 0.23284, Final residual = 0.0203654, No Iterations 4
time step continuity errors : sum local = 0.00257956, global = -2.60065e-15, cumulative = 9.29137e-14
smoothSolver:  Solving for nuTilda, Initial residual = 0.000294506, Final residual = 2.2711e-05, No Iterations 2
bounding nuTilda, min: -0.0105323 max: 0.159355 average: 0.119839
ExecutionTime = 5.14 s  ClockTime = 5 s

Time = 63

smoothSolver:  Solving for Ux, Initial residual = 0.00142733, Final residual = 5.92969e-05, No Iterations 2
smoothSolver:  Solving for Uy, Initial residual = 0.00184008, Final residual = 0.00014943, No Iterations 2
GAMG:  Solving for p, Initial residual = 0.226905, Final residual = 0.0198231, No Iterations 4
time step continuity errors : sum local = 0.00249769, global = -3.91112e-15, cumulative = 8.90026e-14
smoothSolver:  Solving for nuTilda, Initial residual = 0.000294711, Final residual = 2.28171e-05, No Iterations 2
bounding nuTilda, min: -0.0108706 max: 0.15992 average: 0.119819
ExecutionTime = 5.21 s  ClockTime = 5 s

Time = 64

smoothSolver:  Solving for Ux, Initial residual = 0.00140701, Final residual = 5.82589e-05, No Iterations 2
smoothSolver:  Solving for Uy, Initial residual = 0.00181081, Final residual = 0.000147332, No Iterations 2
GAMG:  Solving for p, Initial residual = 0.220023, Final residual = 0.0214475, No Iterations 3
time step continuity errors : sum local = 0.00268558, global = -1.44937e-14, cumulative = 7.45089e-14
smoothSolver:  Solving for nuTilda, Initial residual = 0.000295188, Final residual = 2.29482e-05, No Iterations 2
bounding nuTilda, min: -0.0113425 max: 0.16049 average: 0.119799
ExecutionTime = 5.28 s  ClockTime = 5 s

Time = 65

smoothSolver:  Solving for Ux, Initial residual = 0.00137801, Final residual = 5.69472e-05, No Iterations 2
smoothSolver:  Solving for Uy, Initial residual = 0.00181075, Final residual = 0.000146844, No Iterations 2
GAMG:  Solving for p, Initial residual = 0.211946, Final residual = 0.0188888, No Iterations 4
time step continuity errors : sum local = 0.002343, global = -9.5485e-15, cumulative = 6.49604e-14
smoothSolver:  Solving for nuTilda, Initial residual = 0.000295734, Final residual = 2.30724e-05, No Iterations 2
bounding nuTilda, min: -0.0113975 max: 0.161102 average: 0.11978
ExecutionTime = 5.35 s  ClockTime = 6 s

Time = 66

smoothSolver:  Solving for Ux, Initial residual = 0.00135189, Final residual = 5.60436e-05, No Iterations 2
smoothSolver:  Solving for Uy, Initial residual = 0.00177297, Final residual = 0.000148402, No Iterations 2
GAMG:  Solving for p, Initial residual = 0.208975, Final residual = 0.0206855, No Iterations 3
time step continuity errors : sum local = 0.002559, global = -2.00686e-14, cumulative = 4.48918e-14
smoothSolver:  Solving for nuTilda, Initial residual = 0.000296513, Final residual = 2.32094e-05, No Iterations 2
bounding nuTilda, min: -0.0114304 max: 0.161712 average: 0.119761
ExecutionTime = 5.42 s  ClockTime = 6 s

Time = 67

smoothSolver:  Solving for Ux, Initial residual = 0.00131415, Final residual = 5.49611e-05, No Iterations 2
smoothSolver:  Solving for Uy, Initial residual = 0.00172319, Final residual = 0.000147375, No Iterations 2
GAMG:  Solving for p, Initial residual = 0.202277, Final residual = 0.0186318, No Iterations 4
time step continuity errors : sum local = 0.00229034, global = 2.16879e-15, cumulative = 4.70606e-14
smoothSolver:  Solving for nuTilda, Initial residual = 0.000297284, Final residual = 2.33311e-05, No Iterations 2
bounding nuTilda, min: -0.0108699 max: 0.16237 average: 0.119742
ExecutionTime = 5.49 s  ClockTime = 6 s

Time = 68

smoothSolver:  Solving for Ux, Initial residual = 0.00128736, Final residual = 5.44179e-05, No Iterations 2
smoothSolver:  Solving for Uy, Initial residual = 0.00169225, Final residual = 0.000145357, No Iterations 2
GAMG:  Solving for p, Initial residual = 0.197234, Final residual = 0.0180663, No Iterations 3
time step continuity errors : sum local = 0.00222411, global = 1.36311e-14, cumulative = 6.06917e-14
smoothSolver:  Solving for nuTilda, Initial residual = 0.00029829, Final residual = 2.34703e-05, No Iterations 2
bounding nuTilda, min: -0.0104962 max: 0.163021 average: 0.119723
ExecutionTime = 5.56 s  ClockTime = 6 s

Time = 69

smoothSolver:  Solving for Ux, Initial residual = 0.00125675, Final residual = 5.35556e-05, No Iterations 2
smoothSolver:  Solving for Uy, Initial residual = 0.00167009, Final residual = 0.000142592, No Iterations 2
GAMG:  Solving for p, Initial residual = 0.189422, Final residual = 0.0183502, No Iterations 3
time step continuity errors : sum local = 0.00224262, global = 2.0527e-14, cumulative = 8.12188e-14
smoothSolver:  Solving for nuTilda, Initial residual = 0.000299179, Final residual = 2.35914e-05, No Iterations 2
bounding nuTilda, min: -0.0100126 max: 0.163723 average: 0.119705
ExecutionTime = 5.63 s  ClockTime = 6 s

Time = 70

smoothSolver:  Solving for Ux, Initial residual = 0.00123098, Final residual = 5.28971e-05, No Iterations 2
smoothSolver:  Solving for Uy, Initial residual = 0.00164863, Final residual = 0.000139313, No Iterations 2
GAMG:  Solving for p, Initial residual = 0.185797, Final residual = 0.0175526, No Iterations 4
time step continuity errors : sum local = 0.00213433, global = -1.29413e-14, cumulative = 6.82774e-14
smoothSolver:  Solving for nuTilda, Initial residual = 0.000300096, Final residual = 2.37289e-05, No Iterations 2
bounding nuTilda, min: -0.00992288 max: 0.164413 average: 0.119687
ExecutionTime = 5.7 s  ClockTime = 6 s

Time = 71

smoothSolver:  Solving for Ux, Initial residual = 0.00121679, Final residual = 5.27133e-05, No Iterations 2
smoothSolver:  Solving for Uy, Initial residual = 0.00161554, Final residual = 0.000133748, No Iterations 2
GAMG:  Solving for p, Initial residual = 0.181113, Final residual = 0.0148247, No Iterations 4
time step continuity errors : sum local = 0.00180837, global = -1.786e-15, cumulative = 6.64914e-14
smoothSolver:  Solving for nuTilda, Initial residual = 0.000300956, Final residual = 2.38539e-05, No Iterations 2
bounding nuTilda, min: -0.00995775 max: 0.165151 average: 0.119669
ExecutionTime = 5.77 s  ClockTime = 6 s

Time = 72

smoothSolver:  Solving for Ux, Initial residual = 0.0011889, Final residual = 5.21078e-05, No Iterations 2
smoothSolver:  Solving for Uy, Initial residual = 0.00157956, Final residual = 0.000131831, No Iterations 2
GAMG:  Solving for p, Initial residual = 0.176273, Final residual = 0.0165096, No Iterations 3
time step continuity errors : sum local = 0.00201055, global = -5.96886e-15, cumulative = 6.05226e-14
smoothSolver:  Solving for nuTilda, Initial residual = 0.000301902, Final residual = 2.39846e-05, No Iterations 2
bounding nuTilda, min: -0.0100179 max: 0.165874 average: 0.119651
ExecutionTime = 5.84 s  ClockTime = 6 s

Time = 73

smoothSolver:  Solving for Ux, Initial residual = 0.00115541, Final residual = 5.10896e-05, No Iterations 2
smoothSolver:  Solving for Uy, Initial residual = 0.00156162, Final residual = 0.000132671, No Iterations 2
GAMG:  Solving for p, Initial residual = 0.169073, Final residual = 0.00824198, No Iterations 5
time step continuity errors : sum local = 0.0010012, global = 6.99954e-15, cumulative = 6.75221e-14
smoothSolver:  Solving for nuTilda, Initial residual = 0.000302702, Final residual = 2.41118e-05, No Iterations 2
bounding nuTilda, min: -0.0103654 max: 0.166639 average: 0.119633
ExecutionTime = 5.92 s  ClockTime = 6 s

Time = 74

smoothSolver:  Solving for Ux, Initial residual = 0.00113402, Final residual = 5.04639e-05, No Iterations 2
smoothSolver:  Solving for Uy, Initial residual = 0.00153239, Final residual = 0.000131975, No Iterations 2
GAMG:  Solving for p, Initial residual = 0.163758, Final residual = 0.0132538, No Iterations 3
time step continuity errors : sum local = 0.00160517, global = 1.18637e-14, cumulative = 7.93859e-14
smoothSolver:  Solving for nuTilda, Initial residual = 0.000303447, Final residual = 2.42384e-05, No Iterations 2
bounding nuTilda, min: -0.0106057 max: 0.167384 average: 0.119616
ExecutionTime = 5.98 s  ClockTime = 6 s

Time = 75

smoothSolver:  Solving for Ux, Initial residual = 0.00110855, Final residual = 4.9424e-05, No Iterations 2
smoothSolver:  Solving for Uy, Initial residual = 0.00149913, Final residual = 0.000131359, No Iterations 2
GAMG:  Solving for p, Initial residual = 0.159647, Final residual = 0.0140486, No Iterations 4
time step continuity errors : sum local = 0.00168899, global = 2.02928e-14, cumulative = 9.96786e-14
smoothSolver:  Solving for nuTilda, Initial residual = 0.000303932, Final residual = 2.43535e-05, No Iterations 2
bounding nuTilda, min: -0.0106766 max: 0.168166 average: 0.119598
ExecutionTime = 6.06 s  ClockTime = 6 s

Time = 76

smoothSolver:  Solving for Ux, Initial residual = 0.00108996, Final residual = 4.87895e-05, No Iterations 2
smoothSolver:  Solving for Uy, Initial residual = 0.00147213, Final residual = 0.000129448, No Iterations 2
GAMG:  Solving for p, Initial residual = 0.155887, Final residual = 0.0144803, No Iterations 3
time step continuity errors : sum local = 0.00174114, global = -6.27973e-16, cumulative = 9.90507e-14
smoothSolver:  Solving for nuTilda, Initial residual = 0.000304314, Final residual = 2.44687e-05, No Iterations 2
bounding nuTilda, min: -0.0107629 max: 0.168919 average: 0.119581
ExecutionTime = 6.13 s  ClockTime = 6 s

Time = 77

smoothSolver:  Solving for Ux, Initial residual = 0.00106324, Final residual = 4.79237e-05, No Iterations 2
smoothSolver:  Solving for Uy, Initial residual = 0.00144756, Final residual = 0.000127528, No Iterations 2
GAMG:  Solving for p, Initial residual = 0.149767, Final residual = 0.0142916, No Iterations 3
time step continuity errors : sum local = 0.00171294, global = 1.37748e-14, cumulative = 1.12825e-13
smoothSolver:  Solving for nuTilda, Initial residual = 0.000304376, Final residual = 2.45644e-05, No Iterations 2
bounding nuTilda, min: -0.010558 max: 0.169702 average: 0.119564
ExecutionTime = 6.2 s  ClockTime = 6 s

Time = 78

smoothSolver:  Solving for Ux, Initial residual = 0.00103933, Final residual = 4.72165e-05, No Iterations 2
smoothSolver:  Solving for Uy, Initial residual = 0.00142381, Final residual = 0.000125577, No Iterations 2
GAMG:  Solving for p, Initial residual = 0.146115, Final residual = 0.00684903, No Iterations 5
time step continuity errors : sum local = 0.000823275, global = 1.85358e-14, cumulative = 1.31361e-13
smoothSolver:  Solving for nuTilda, Initial residual = 0.000304226, Final residual = 2.46648e-05, No Iterations 2
bounding nuTilda, min: -0.0100421 max: 0.170447 average: 0.119547
ExecutionTime = 6.28 s  ClockTime = 6 s

Time = 79

smoothSolver:  Solving for Ux, Initial residual = 0.0010283, Final residual = 4.72082e-05, No Iterations 2
smoothSolver:  Solving for Uy, Initial residual = 0.00138628, Final residual = 0.000122712, No Iterations 2
GAMG:  Solving for p, Initial residual = 0.139468, Final residual = 0.0108076, No Iterations 3
time step continuity errors : sum local = 0.00130219, global = 1.56774e-14, cumulative = 1.47039e-13
smoothSolver:  Solving for nuTilda, Initial residual = 0.000303761, Final residual = 2.47501e-05, No Iterations 2
bounding nuTilda, min: -0.00981651 max: 0.171264 average: 0.11953
ExecutionTime = 6.35 s  ClockTime = 7 s

Time = 80

smoothSolver:  Solving for Ux, Initial residual = 0.00100437, Final residual = 4.64004e-05, No Iterations 2
smoothSolver:  Solving for Uy, Initial residual = 0.00136514, Final residual = 0.000121195, No Iterations 2
GAMG:  Solving for p, Initial residual = 0.135191, Final residual = 0.0134343, No Iterations 3
time step continuity errors : sum local = 0.00160686, global = -1.2281e-14, cumulative = 1.34758e-13
smoothSolver:  Solving for nuTilda, Initial residual = 0.000303063, Final residual = 2.4835e-05, No Iterations 2
bounding nuTilda, min: -0.00962943 max: 0.172084 average: 0.119512
ExecutionTime = 6.42 s  ClockTime = 7 s

Time = 81

smoothSolver:  Solving for Ux, Initial residual = 0.000980792, Final residual = 4.58017e-05, No Iterations 2
smoothSolver:  Solving for Uy, Initial residual = 0.00133889, Final residual = 0.000119418, No Iterations 2
GAMG:  Solving for p, Initial residual = 0.131795, Final residual = 0.011678, No Iterations 4
time step continuity errors : sum local = 0.00139306, global = -1.42432e-14, cumulative = 1.20515e-13
smoothSolver:  Solving for nuTilda, Initial residual = 0.000301988, Final residual = 2.49018e-05, No Iterations 2
bounding nuTilda, min: -0.00966291 max: 0.172899 average: 0.119495
ExecutionTime = 6.5 s  ClockTime = 7 s

Time = 82

smoothSolver:  Solving for Ux, Initial residual = 0.000965496, Final residual = 4.52465e-05, No Iterations 2
smoothSolver:  Solving for Uy, Initial residual = 0.0012996, Final residual = 0.000116019, No Iterations 2
GAMG:  Solving for p, Initial residual = 0.127453, Final residual = 0.0117925, No Iterations 3
time step continuity errors : sum local = 0.00141133, global = -6.7368e-15, cumulative = 1.13778e-13
smoothSolver:  Solving for nuTilda, Initial residual = 0.000300724, Final residual = 2.49667e-05, No Iterations 2
bounding nuTilda, min: -0.00963267 max: 0.173712 average: 0.119478
ExecutionTime = 6.57 s  ClockTime = 7 s

Time = 83

smoothSolver:  Solving for Ux, Initial residual = 0.000942943, Final residual = 4.46249e-05, No Iterations 2
smoothSolver:  Solving for Uy, Initial residual = 0.00127849, Final residual = 0.000116247, No Iterations 2
GAMG:  Solving for p, Initial residual = 0.123378, Final residual = 0.0121406, No Iterations 4
time step continuity errors : sum local = 0.00144323, global = 5.12591e-15, cumulative = 1.18904e-13
smoothSolver:  Solving for nuTilda, Initial residual = 0.000299122, Final residual = 2.50211e-05, No Iterations 2
bounding nuTilda, min: -0.00986918 max: 0.174504 average: 0.119461
ExecutionTime = 6.66 s  ClockTime = 7 s

Time = 84

smoothSolver:  Solving for Ux, Initial residual = 0.000934258, Final residual = 4.41947e-05, No Iterations 2
smoothSolver:  Solving for Uy, Initial residual = 0.00125041, Final residual = 0.000114576, No Iterations 2
GAMG:  Solving for p, Initial residual = 0.119806, Final residual = 0.00947133, No Iterations 3
time step continuity errors : sum local = 0.00113129, global = -6.4147e-15, cumulative = 1.12489e-13
smoothSolver:  Solving for nuTilda, Initial residual = 0.000297369, Final residual = 2.50727e-05, No Iterations 2
bounding nuTilda, min: -0.0100293 max: 0.175294 average: 0.119443
ExecutionTime = 6.73 s  ClockTime = 7 s

Time = 85

smoothSolver:  Solving for Ux, Initial residual = 0.000914406, Final residual = 4.33649e-05, No Iterations 2
smoothSolver:  Solving for Uy, Initial residual = 0.0012347, Final residual = 0.000114293, No Iterations 2
GAMG:  Solving for p, Initial residual = 0.11564, Final residual = 0.0107808, No Iterations 3
time step continuity errors : sum local = 0.00128102, global = -9.8534e-15, cumulative = 1.02636e-13
smoothSolver:  Solving for nuTilda, Initial residual = 0.000295281, Final residual = 2.51056e-05, No Iterations 2
bounding nuTilda, min: -0.010189 max: 0.176045 average: 0.119426
ExecutionTime = 6.79 s  ClockTime = 7 s

Time = 86

smoothSolver:  Solving for Ux, Initial residual = 0.0008971, Final residual = 4.27773e-05, No Iterations 2
smoothSolver:  Solving for Uy, Initial residual = 0.00121622, Final residual = 0.000113126, No Iterations 2
GAMG:  Solving for p, Initial residual = 0.112314, Final residual = 0.0100621, No Iterations 4
time step continuity errors : sum local = 0.00119228, global = -6.56703e-16, cumulative = 1.01979e-13
smoothSolver:  Solving for nuTilda, Initial residual = 0.00029307, Final residual = 2.51395e-05, No Iterations 2
bounding nuTilda, min: -0.0100083 max: 0.176809 average: 0.119408
ExecutionTime = 6.87 s  ClockTime = 7 s

Time = 87

smoothSolver:  Solving for Ux, Initial residual = 0.000883255, Final residual = 4.24573e-05, No Iterations 2
smoothSolver:  Solving for Uy, Initial residual = 0.00118342, Final residual = 0.000109927, No Iterations 2
GAMG:  Solving for p, Initial residual = 0.108304, Final residual = 0.00956013, No Iterations 3
time step continuity errors : sum local = 0.00113833, global = -5.30084e-15, cumulative = 9.6678e-14
smoothSolver:  Solving for nuTilda, Initial residual = 0.00029057, Final residual = 2.51585e-05, No Iterations 2
bounding nuTilda, min: -0.00998743 max: 0.177671 average: 0.119391
ExecutionTime = 6.93 s  ClockTime = 7 s

Time = 88

smoothSolver:  Solving for Ux, Initial residual = 0.000864846, Final residual = 4.19008e-05, No Iterations 2
smoothSolver:  Solving for Uy, Initial residual = 0.00116648, Final residual = 0.00010836, No Iterations 2
GAMG:  Solving for p, Initial residual = 0.104101, Final residual = 0.00855939, No Iterations 4
time step continuity errors : sum local = 0.00101588, global = 5.48168e-15, cumulative = 1.0216e-13
smoothSolver:  Solving for nuTilda, Initial residual = 0.000287978, Final residual = 2.51817e-05, No Iterations 2
bounding nuTilda, min: -0.00972743 max: 0.178487 average: 0.119373
ExecutionTime = 7.01 s  ClockTime = 7 s

Time = 89

smoothSolver:  Solving for Ux, Initial residual = 0.000854443, Final residual = 4.15153e-05, No Iterations 2
smoothSolver:  Solving for Uy, Initial residual = 0.00113905, Final residual = 0.000106709, No Iterations 2
GAMG:  Solving for p, Initial residual = 0.100775, Final residual = 0.00840885, No Iterations 3
time step continuity errors : sum local = 0.00100286, global = 7.9353e-15, cumulative = 1.10095e-13
smoothSolver:  Solving for nuTilda, Initial residual = 0.000285225, Final residual = 2.51892e-05, No Iterations 2
bounding nuTilda, min: -0.00957908 max: 0.179312 average: 0.119355
ExecutionTime = 7.07 s  ClockTime = 7 s

Time = 90

smoothSolver:  Solving for Ux, Initial residual = 0.000836458, Final residual = 4.09962e-05, No Iterations 2
smoothSolver:  Solving for Uy, Initial residual = 0.00112266, Final residual = 0.000106162, No Iterations 2
GAMG:  Solving for p, Initial residual = 0.0971193, Final residual = 0.00879418, No Iterations 4
time step continuity errors : sum local = 0.00104278, global = -1.75164e-14, cumulative = 9.25786e-14
smoothSolver:  Solving for nuTilda, Initial residual = 0.000282467, Final residual = 2.52079e-05, No Iterations 2
bounding nuTilda, min: -0.00949664 max: 0.18009 average: 0.119337
ExecutionTime = 7.14 s  ClockTime = 7 s

Time = 91

smoothSolver:  Solving for Ux, Initial residual = 0.0008279, Final residual = 4.03964e-05, No Iterations 2
smoothSolver:  Solving for Uy, Initial residual = 0.00109165, Final residual = 0.000103837, No Iterations 2
GAMG:  Solving for p, Initial residual = 0.0939484, Final residual = 0.00812302, No Iterations 3
time step continuity errors : sum local = 0.000968714, global = 2.66973e-14, cumulative = 1.19276e-13
smoothSolver:  Solving for nuTilda, Initial residual = 0.000279608, Final residual = 2.52093e-05, No Iterations 2
bounding nuTilda, min: -0.0093962 max: 0.180853 average: 0.119318
ExecutionTime = 7.21 s  ClockTime = 7 s

Time = 92

smoothSolver:  Solving for Ux, Initial residual = 0.000810123, Final residual = 3.98695e-05, No Iterations 2
smoothSolver:  Solving for Uy, Initial residual = 0.00108121, Final residual = 0.000103358, No Iterations 2
GAMG:  Solving for p, Initial residual = 0.0904124, Final residual = 0.00865565, No Iterations 4
time step continuity errors : sum local = 0.00102716, global = -1.76339e-14, cumulative = 1.01642e-13
smoothSolver:  Solving for nuTilda, Initial residual = 0.000276858, Final residual = 2.52203e-05, No Iterations 2
bounding nuTilda, min: -0.009449 max: 0.181579 average: 0.1193
ExecutionTime = 7.28 s  ClockTime = 7 s

Time = 93

smoothSolver:  Solving for Ux, Initial residual = 0.00079974, Final residual = 3.95675e-05, No Iterations 2
smoothSolver:  Solving for Uy, Initial residual = 0.00105534, Final residual = 0.000100757, No Iterations 2
GAMG:  Solving for p, Initial residual = 0.087546, Final residual = 0.00723552, No Iterations 3
time step continuity errors : sum local = 0.000863376, global = 1.81859e-14, cumulative = 1.19828e-13
smoothSolver:  Solving for nuTilda, Initial residual = 0.00027411, Final residual = 2.52113e-05, No Iterations 2
bounding nuTilda, min: -0.00944684 max: 0.182426 average: 0.119281
ExecutionTime = 7.35 s  ClockTime = 8 s

Time = 94

smoothSolver:  Solving for Ux, Initial residual = 0.000784715, Final residual = 3.89979e-05, No Iterations 2
smoothSolver:  Solving for Uy, Initial residual = 0.00104154, Final residual = 0.000100099, No Iterations 2
GAMG:  Solving for p, Initial residual = 0.0842469, Final residual = 0.00644396, No Iterations 4
time step continuity errors : sum local = 0.000767371, global = 7.43383e-16, cumulative = 1.20571e-13
smoothSolver:  Solving for nuTilda, Initial residual = 0.000271602, Final residual = 2.52134e-05, No Iterations 2
bounding nuTilda, min: -0.00951126 max: 0.183277 average: 0.119262
ExecutionTime = 7.42 s  ClockTime = 8 s

Time = 95

smoothSolver:  Solving for Ux, Initial residual = 0.000774705, Final residual = 3.85445e-05, No Iterations 2
smoothSolver:  Solving for Uy, Initial residual = 0.00101677, Final residual = 9.79854e-05, No Iterations 2
GAMG:  Solving for p, Initial residual = 0.0812239, Final residual = 0.00747787, No Iterations 3
time step continuity errors : sum local = 0.000893199, global = 2.6431e-14, cumulative = 1.47002e-13
smoothSolver:  Solving for nuTilda, Initial residual = 0.000269172, Final residual = 2.52015e-05, No Iterations 2
bounding nuTilda, min: -0.00953555 max: 0.184084 average: 0.119243
ExecutionTime = 7.48 s  ClockTime = 8 s

Time = 96

smoothSolver:  Solving for Ux, Initial residual = 0.00076041, Final residual = 3.81049e-05, No Iterations 2
smoothSolver:  Solving for Uy, Initial residual = 0.00100361, Final residual = 9.763e-05, No Iterations 2
GAMG:  Solving for p, Initial residual = 0.0783003, Final residual = 0.00739534, No Iterations 4
time step continuity errors : sum local = 0.000880211, global = 1.81963e-14, cumulative = 1.65199e-13
smoothSolver:  Solving for nuTilda, Initial residual = 0.00026683, Final residual = 2.51993e-05, No Iterations 2
bounding nuTilda, min: -0.00952677 max: 0.184859 average: 0.119224
ExecutionTime = 7.55 s  ClockTime = 8 s

Time = 97

smoothSolver:  Solving for Ux, Initial residual = 0.000751849, Final residual = 3.76003e-05, No Iterations 2
smoothSolver:  Solving for Uy, Initial residual = 0.000980079, Final residual = 9.55983e-05, No Iterations 2
GAMG:  Solving for p, Initial residual = 0.0755285, Final residual = 0.00703048, No Iterations 4
time step continuity errors : sum local = 0.000839207, global = -9.6916e-15, cumulative = 1.55507e-13
smoothSolver:  Solving for nuTilda, Initial residual = 0.000264521, Final residual = 2.51741e-05, No Iterations 2
bounding nuTilda, min: -0.00949538 max: 0.185665 average: 0.119204
ExecutionTime = 7.62 s  ClockTime = 8 s

Time = 98

smoothSolver:  Solving for Ux, Initial residual = 0.00074089, Final residual = 3.72966e-05, No Iterations 2
smoothSolver:  Solving for Uy, Initial residual = 0.000963731, Final residual = 9.4455e-05, No Iterations 2
GAMG:  Solving for p, Initial residual = 0.0734466, Final residual = 0.00584631, No Iterations 3
time step continuity errors : sum local = 0.000701334, global = -1.68911e-15, cumulative = 1.53818e-13
smoothSolver:  Solving for nuTilda, Initial residual = 0.000262283, Final residual = 2.51595e-05, No Iterations 2
bounding nuTilda, min: -0.00946981 max: 0.18638 average: 0.119185
ExecutionTime = 7.68 s  ClockTime = 8 s

Time = 99

smoothSolver:  Solving for Ux, Initial residual = 0.000726727, Final residual = 3.68979e-05, No Iterations 2
smoothSolver:  Solving for Uy, Initial residual = 0.000959062, Final residual = 9.42178e-05, No Iterations 2
GAMG:  Solving for p, Initial residual = 0.0701394, Final residual = 0.0066574, No Iterations 4
time step continuity errors : sum local = 0.000794375, global = -6.56893e-15, cumulative = 1.47249e-13
smoothSolver:  Solving for nuTilda, Initial residual = 0.000260078, Final residual = 2.5134e-05, No Iterations 2
bounding nuTilda, min: -0.00939714 max: 0.187 average: 0.119165
ExecutionTime = 7.75 s  ClockTime = 8 s

Time = 100

smoothSolver:  Solving for Ux, Initial residual = 0.000717168, Final residual = 3.64969e-05, No Iterations 2
smoothSolver:  Solving for Uy, Initial residual = 0.000932986, Final residual = 9.22119e-05, No Iterations 2
GAMG:  Solving for p, Initial residual = 0.0679869, Final residual = 0.00605689, No Iterations 3
time step continuity errors : sum local = 0.000726393, global = 1.17451e-14, cumulative = 1.58994e-13
smoothSolver:  Solving for nuTilda, Initial residual = 0.000258075, Final residual = 2.51122e-05, No Iterations 2
bounding nuTilda, min: -0.00935558 max: 0.18752 average: 0.119145
ExecutionTime = 7.96 s  ClockTime = 8 s

Time = 101

smoothSolver:  Solving for Ux, Initial residual = 0.000706029, Final residual = 3.60478e-05, No Iterations 2
smoothSolver:  Solving for Uy, Initial residual = 0.000918943, Final residual = 9.14854e-05, No Iterations 2
GAMG:  Solving for p, Initial residual = 0.0655226, Final residual = 0.00251631, No Iterations 5
time step continuity errors : sum local = 0.0003045, global = 1.1951e-14, cumulative = 1.70945e-13
smoothSolver:  Solving for nuTilda, Initial residual = 0.000256089, Final residual = 2.5079e-05, No Iterations 2
bounding nuTilda, min: -0.0092932 max: 0.188084 average: 0.119125
ExecutionTime = 8.03 s  ClockTime = 8 s

Time = 102

smoothSolver:  Solving for Ux, Initial residual = 0.000697343, Final residual = 3.5637e-05, No Iterations 2
smoothSolver:  Solving for Uy, Initial residual = 0.000893068, Final residual = 8.90224e-05, No Iterations 2
GAMG:  Solving for p, Initial residual = 0.0624879, Final residual = 0.00588291, No Iterations 4
time step continuity errors : sum local = 0.000705466, global = 2.21911e-14, cumulative = 1.93136e-13
smoothSolver:  Solving for nuTilda, Initial residual = 0.000254231, Final residual = 2.50525e-05, No Iterations 2
bounding nuTilda, min: -0.0092597 max: 0.188544 average: 0.119105
ExecutionTime = 8.11 s  ClockTime = 8 s

Time = 103

smoothSolver:  Solving for Ux, Initial residual = 0.000689736, Final residual = 3.52302e-05, No Iterations 2
smoothSolver:  Solving for Uy, Initial residual = 0.000874908, Final residual = 8.72428e-05, No Iterations 2
GAMG:  Solving for p, Initial residual = 0.0607344, Final residual = 0.00417388, No Iterations 3
time step continuity errors : sum local = 0.000505058, global = 1.36874e-14, cumulative = 2.06824e-13
smoothSolver:  Solving for nuTilda, Initial residual = 0.000252317, Final residual = 2.50163e-05, No Iterations 2
bounding nuTilda, min: -0.00922344 max: 0.188897 average: 0.119086
ExecutionTime = 8.18 s  ClockTime = 8 s

Time = 104

smoothSolver:  Solving for Ux, Initial residual = 0.000678751, Final residual = 3.47765e-05, No Iterations 2
smoothSolver:  Solving for Uy, Initial residual = 0.000871329, Final residual = 8.71015e-05, No Iterations 2
GAMG:  Solving for p, Initial residual = 0.0581725, Final residual = 0.00298753, No Iterations 5
time step continuity errors : sum local = 0.000361151, global = -1.3487e-14, cumulative = 1.93337e-13
smoothSolver:  Solving for nuTilda, Initial residual = 0.0002506, Final residual = 2.49909e-05, No Iterations 2
bounding nuTilda, min: -0.00922378 max: 0.189142 average: 0.119066
ExecutionTime = 8.25 s  ClockTime = 8 s

Time = 105

smoothSolver:  Solving for Ux, Initial residual = 0.000671232, Final residual = 3.46267e-05, No Iterations 2
smoothSolver:  Solving for Uy, Initial residual = 0.000859395, Final residual = 2.19582e-05, No Iterations 4
GAMG:  Solving for p, Initial residual = 0.0565178, Final residual = 0.00321211, No Iterations 5
time step continuity errors : sum local = 0.000388909, global = 3.80315e-15, cumulative = 1.9714e-13
smoothSolver:  Solving for nuTilda, Initial residual = 0.000248883, Final residual = 5.47007e-06, No Iterations 4
bounding nuTilda, min: -0.0097611 max: 0.189277 average: 0.119043
ExecutionTime = 8.33 s  ClockTime = 8 s

Time = 106

smoothSolver:  Solving for Ux, Initial residual = 0.000665374, Final residual = 3.42788e-05, No Iterations 2
smoothSolver:  Solving for Uy, Initial residual = 0.000832742, Final residual = 7.98974e-05, No Iterations 2
GAMG:  Solving for p, Initial residual = 0.0538879, Final residual = 0.00510216, No Iterations 3
time step continuity errors : sum local = 0.000617757, global = -2.29153e-14, cumulative = 1.74224e-13
smoothSolver:  Solving for nuTilda, Initial residual = 0.000246933, Final residual = 5.47718e-06, No Iterations 4
bounding nuTilda, min: -0.00975071 max: 0.189303 average: 0.119022
ExecutionTime = 8.4 s  ClockTime = 9 s

Time = 107

smoothSolver:  Solving for Ux, Initial residual = 0.000654095, Final residual = 3.38575e-05, No Iterations 2
smoothSolver:  Solving for Uy, Initial residual = 0.000824271, Final residual = 8.03668e-05, No Iterations 2
GAMG:  Solving for p, Initial residual = 0.0525775, Final residual = 0.00460487, No Iterations 4
time step continuity errors : sum local = 0.00055682, global = 3.06258e-15, cumulative = 1.77287e-13
smoothSolver:  Solving for nuTilda, Initial residual = 0.000244834, Final residual = 5.47705e-06, No Iterations 4
bounding nuTilda, min: -0.00974669 max: 0.189221 average: 0.119
ExecutionTime = 8.46 s  ClockTime = 9 s

Time = 108

smoothSolver:  Solving for Ux, Initial residual = 0.000644782, Final residual = 3.34085e-05, No Iterations 2
smoothSolver:  Solving for Uy, Initial residual = 0.000805046, Final residual = 2.08653e-05, No Iterations 4
GAMG:  Solving for p, Initial residual = 0.0502541, Final residual = 0.00351782, No Iterations 3
time step continuity errors : sum local = 0.000429776, global = 5.4985e-15, cumulative = 1.82786e-13
smoothSolver:  Solving for nuTilda, Initial residual = 0.000242667, Final residual = 5.47726e-06, No Iterations 4
bounding nuTilda, min: -0.00972969 max: 0.189032 average: 0.118979
ExecutionTime = 8.53 s  ClockTime = 9 s

Time = 109

smoothSolver:  Solving for Ux, Initial residual = 0.000637273, Final residual = 3.2985e-05, No Iterations 2
smoothSolver:  Solving for Uy, Initial residual = 0.00079342, Final residual = 2.03198e-05, No Iterations 4
GAMG:  Solving for p, Initial residual = 0.0489245, Final residual = 0.00484294, No Iterations 5
time step continuity errors : sum local = 0.000586805, global = -8.64466e-16, cumulative = 1.81921e-13
smoothSolver:  Solving for nuTilda, Initial residual = 0.000240274, Final residual = 5.47569e-06, No Iterations 4
bounding nuTilda, min: -0.00969812 max: 0.188742 average: 0.118958
ExecutionTime = 8.62 s  ClockTime = 9 s

Time = 110

smoothSolver:  Solving for Ux, Initial residual = 0.000634853, Final residual = 3.28727e-05, No Iterations 2
smoothSolver:  Solving for Uy, Initial residual = 0.000762563, Final residual = 7.34669e-05, No Iterations 2
GAMG:  Solving for p, Initial residual = 0.0469163, Final residual = 0.00437312, No Iterations 5
time step continuity errors : sum local = 0.000531962, global = -1.91191e-14, cumulative = 1.62802e-13
smoothSolver:  Solving for nuTilda, Initial residual = 0.000237798, Final residual = 5.47469e-06, No Iterations 4
bounding nuTilda, min: -0.0096718 max: 0.188352 average: 0.118937
ExecutionTime = 8.69 s  ClockTime = 9 s

Time = 111

smoothSolver:  Solving for Ux, Initial residual = 0.000626304, Final residual = 3.27627e-05, No Iterations 2
smoothSolver:  Solving for Uy, Initial residual = 0.000757038, Final residual = 7.44986e-05, No Iterations 2
GAMG:  Solving for p, Initial residual = 0.045747, Final residual = 0.00436111, No Iterations 3
time step continuity errors : sum local = 0.000534404, global = -3.25479e-15, cumulative = 1.59547e-13
smoothSolver:  Solving for nuTilda, Initial residual = 0.000235073, Final residual = 5.47154e-06, No Iterations 4
bounding nuTilda, min: -0.00966131 max: 0.187868 average: 0.118917
ExecutionTime = 8.75 s  ClockTime = 9 s

Time = 112

smoothSolver:  Solving for Ux, Initial residual = 0.000615833, Final residual = 3.22778e-05, No Iterations 2
smoothSolver:  Solving for Uy, Initial residual = 0.000757813, Final residual = 1.97737e-05, No Iterations 4
GAMG:  Solving for p, Initial residual = 0.0437911, Final residual = 0.00397919, No Iterations 5
time step continuity errors : sum local = 0.00048493, global = 1.36969e-14, cumulative = 1.73244e-13
smoothSolver:  Solving for nuTilda, Initial residual = 0.000232222, Final residual = 5.47118e-06, No Iterations 4
bounding nuTilda, min: -0.00961506 max: 0.187295 average: 0.118897
ExecutionTime = 8.84 s  ClockTime = 9 s

Time = 113

smoothSolver:  Solving for Ux, Initial residual = 0.000607473, Final residual = 3.18607e-05, No Iterations 2
smoothSolver:  Solving for Uy, Initial residual = 0.000746691, Final residual = 1.93643e-05, No Iterations 4
GAMG:  Solving for p, Initial residual = 0.0425188, Final residual = 0.00296074, No Iterations 5
time step continuity errors : sum local = 0.000362685, global = -1.4047e-14, cumulative = 1.59197e-13
smoothSolver:  Solving for nuTilda, Initial residual = 0.000229152, Final residual = 5.46777e-06, No Iterations 4
bounding nuTilda, min: -0.00958511 max: 0.186638 average: 0.118877
ExecutionTime = 8.91 s  ClockTime = 9 s

Time = 114

smoothSolver:  Solving for Ux, Initial residual = 0.00060202, Final residual = 3.14619e-05, No Iterations 2
smoothSolver:  Solving for Uy, Initial residual = 0.000723181, Final residual = 7.11573e-05, No Iterations 2
GAMG:  Solving for p, Initial residual = 0.0408655, Final residual = 0.00298517, No Iterations 3
time step continuity errors : sum local = 0.000367459, global = -2.68687e-16, cumulative = 1.58928e-13
smoothSolver:  Solving for nuTilda, Initial residual = 0.000225986, Final residual = 5.46587e-06, No Iterations 4
bounding nuTilda, min: -0.00956343 max: 0.185903 average: 0.118858
ExecutionTime = 8.98 s  ClockTime = 9 s

Time = 115

smoothSolver:  Solving for Ux, Initial residual = 0.000594275, Final residual = 3.11205e-05, No Iterations 2
smoothSolver:  Solving for Uy, Initial residual = 0.000714405, Final residual = 1.82053e-05, No Iterations 4
GAMG:  Solving for p, Initial residual = 0.0392974, Final residual = 0.00376872, No Iterations 5
time step continuity errors : sum local = 0.000461414, global = 1.59144e-14, cumulative = 1.74843e-13
smoothSolver:  Solving for nuTilda, Initial residual = 0.000222648, Final residual = 5.46392e-06, No Iterations 4
bounding nuTilda, min: -0.00954185 max: 0.185097 average: 0.118839
ExecutionTime = 9.06 s  ClockTime = 9 s

Time = 116

smoothSolver:  Solving for Ux, Initial residual = 0.000590165, Final residual = 3.09082e-05, No Iterations 2
smoothSolver:  Solving for Uy, Initial residual = 0.000686101, Final residual = 1.77107e-05, No Iterations 4
GAMG:  Solving for p, Initial residual = 0.0373909, Final residual = 0.00226657, No Iterations 5
time step continuity errors : sum local = 0.000280265, global = -2.0627e-15, cumulative = 1.7278e-13
smoothSolver:  Solving for nuTilda, Initial residual = 0.000219204, Final residual = 5.46285e-06, No Iterations 4
bounding nuTilda, min: -0.00952272 max: 0.184227 average: 0.118821
ExecutionTime = 9.14 s  ClockTime = 9 s

Time = 117

smoothSolver:  Solving for Ux, Initial residual = 0.000584611, Final residual = 3.0674e-05, No Iterations 2
smoothSolver:  Solving for Uy, Initial residual = 0.000668088, Final residual = 1.71189e-05, No Iterations 4
GAMG:  Solving for p, Initial residual = 0.0361656, Final residual = 0.0027396, No Iterations 5
time step continuity errors : sum local = 0.000338172, global = -2.50018e-14, cumulative = 1.47778e-13
smoothSolver:  Solving for nuTilda, Initial residual = 0.000215598, Final residual = 5.45977e-06, No Iterations 4
bounding nuTilda, min: -0.00950828 max: 0.183299 average: 0.118803
ExecutionTime = 9.21 s  ClockTime = 9 s

Time = 118

smoothSolver:  Solving for Ux, Initial residual = 0.000576221, Final residual = 3.03936e-05, No Iterations 2
smoothSolver:  Solving for Uy, Initial residual = 0.000665618, Final residual = 6.62997e-05, No Iterations 2
GAMG:  Solving for p, Initial residual = 0.0353883, Final residual = 0.00331226, No Iterations 3
time step continuity errors : sum local = 0.000410984, global = 1.49554e-14, cumulative = 1.62734e-13
smoothSolver:  Solving for nuTilda, Initial residual = 0.000211922, Final residual = 5.45827e-06, No Iterations 4
bounding nuTilda, min: -0.00949853 max: 0.182597 average: 0.118785
ExecutionTime = 9.28 s  ClockTime = 9 s

Time = 119

smoothSolver:  Solving for Ux, Initial residual = 0.000568143, Final residual = 3.00113e-05, No Iterations 2
smoothSolver:  Solving for Uy, Initial residual = 0.000669354, Final residual = 1.75918e-05, No Iterations 4
GAMG:  Solving for p, Initial residual = 0.0337906, Final residual = 0.00213357, No Iterations 5
time step continuity errors : sum local = 0.0002656, global = -9.81482e-15, cumulative = 1.52919e-13
smoothSolver:  Solving for nuTilda, Initial residual = 0.000208144, Final residual = 5.45632e-06, No Iterations 4
bounding nuTilda, min: -0.00948363 max: 0.181919 average: 0.118768
ExecutionTime = 9.36 s  ClockTime = 10 s

Time = 120

smoothSolver:  Solving for Ux, Initial residual = 0.000561105, Final residual = 2.95775e-05, No Iterations 2
smoothSolver:  Solving for Uy, Initial residual = 0.000659875, Final residual = 1.74281e-05, No Iterations 4
GAMG:  Solving for p, Initial residual = 0.0324904, Final residual = 0.00234133, No Iterations 5
time step continuity errors : sum local = 0.000292093, global = 2.95603e-15, cumulative = 1.55875e-13
smoothSolver:  Solving for nuTilda, Initial residual = 0.000204351, Final residual = 5.45519e-06, No Iterations 4
bounding nuTilda, min: -0.00946669 max: 0.181196 average: 0.118751
ExecutionTime = 9.43 s  ClockTime = 10 s

Time = 121

smoothSolver:  Solving for Ux, Initial residual = 0.000556443, Final residual = 2.93088e-05, No Iterations 2
smoothSolver:  Solving for Uy, Initial residual = 0.000639923, Final residual = 1.65285e-05, No Iterations 4
GAMG:  Solving for p, Initial residual = 0.0316046, Final residual = 0.00245102, No Iterations 5
time step continuity errors : sum local = 0.000305677, global = 7.25128e-15, cumulative = 1.63126e-13
smoothSolver:  Solving for nuTilda, Initial residual = 0.00020046, Final residual = 5.45365e-06, No Iterations 4
bounding nuTilda, min: -0.00945015 max: 0.180434 average: 0.118735
ExecutionTime = 9.51 s  ClockTime = 10 s

Time = 122

smoothSolver:  Solving for Ux, Initial residual = 0.000551744, Final residual = 2.91459e-05, No Iterations 2
smoothSolver:  Solving for Uy, Initial residual = 0.000619141, Final residual = 6.1702e-05, No Iterations 2
GAMG:  Solving for p, Initial residual = 0.0303918, Final residual = 0.00254984, No Iterations 3
time step continuity errors : sum local = 0.000320252, global = 1.5496e-14, cumulative = 1.78622e-13
smoothSolver:  Solving for nuTilda, Initial residual = 0.000196569, Final residual = 5.45298e-06, No Iterations 4
bounding nuTilda, min: -0.0094399 max: 0.179641 average: 0.11872
ExecutionTime = 9.58 s  ClockTime = 10 s

Time = 123

smoothSolver:  Solving for Ux, Initial residual = 0.000543956, Final residual = 2.88297e-05, No Iterations 2
smoothSolver:  Solving for Uy, Initial residual = 0.000615011, Final residual = 1.62982e-05, No Iterations 4
GAMG:  Solving for p, Initial residual = 0.0289407, Final residual = 0.0017819, No Iterations 6
time step continuity errors : sum local = 0.000223064, global = 2.27075e-15, cumulative = 1.80893e-13
smoothSolver:  Solving for nuTilda, Initial residual = 0.000192678, Final residual = 5.45169e-06, No Iterations 4
bounding nuTilda, min: -0.00941294 max: 0.178823 average: 0.118705
ExecutionTime = 9.66 s  ClockTime = 10 s

Time = 124

[...]
smoothSolver:  Solving for nuTilda, Initial residual = 1.38487e-05, Final residual = 1.0242e-06, No Iterations 4
bounding nuTilda, min: -0.00513046 max: 0.151991 average: 0.115332
ExecutionTime = 114.47 s  ClockTime = 115 s

Time = 1171

smoothSolver:  Solving for Ux, Initial residual = 1.5679e-05, Final residual = 1.15411e-06, No Iterations 4
smoothSolver:  Solving for Uy, Initial residual = 2.46682e-06, Final residual = 2.04973e-07, No Iterations 2
GAMG:  Solving for p, Initial residual = 2.90043e-05, Final residual = 2.86061e-06, No Iterations 12
time step continuity errors : sum local = 4.60844e-07, global = -3.75814e-15, cumulative = 5.71583e-13
smoothSolver:  Solving for nuTilda, Initial residual = 1.38464e-05, Final residual = 1.02334e-06, No Iterations 4
bounding nuTilda, min: -0.00512719 max: 0.152001 average: 0.115331
ExecutionTime = 114.56 s  ClockTime = 115 s

Time = 1172

smoothSolver:  Solving for Ux, Initial residual = 1.5663e-05, Final residual = 1.15328e-06, No Iterations 4
smoothSolver:  Solving for Uy, Initial residual = 2.46604e-06, Final residual = 2.01629e-07, No Iterations 2
GAMG:  Solving for p, Initial residual = 3.03893e-05, Final residual = 2.96386e-06, No Iterations 10
time step continuity errors : sum local = 4.80139e-07, global = -2.01858e-15, cumulative = 5.69565e-13
smoothSolver:  Solving for nuTilda, Initial residual = 1.38304e-05, Final residual = 1.0228e-06, No Iterations 4
bounding nuTilda, min: -0.00512382 max: 0.152011 average: 0.115329
ExecutionTime = 114.65 s  ClockTime = 115 s

Time = 1173

smoothSolver:  Solving for Ux, Initial residual = 1.56418e-05, Final residual = 1.15253e-06, No Iterations 4
smoothSolver:  Solving for Uy, Initial residual = 2.47395e-06, Final residual = 2.02888e-07, No Iterations 2
GAMG:  Solving for p, Initial residual = 2.85442e-05, Final residual = 2.8484e-06, No Iterations 12
time step continuity errors : sum local = 4.59497e-07, global = 1.1719e-15, cumulative = 5.70737e-13
smoothSolver:  Solving for nuTilda, Initial residual = 1.38291e-05, Final residual = 1.02194e-06, No Iterations 4
bounding nuTilda, min: -0.00512058 max: 0.152021 average: 0.115328
ExecutionTime = 114.75 s  ClockTime = 115 s

Time = 1174

smoothSolver:  Solving for Ux, Initial residual = 1.564e-05, Final residual = 1.15195e-06, No Iterations 4
smoothSolver:  Solving for Uy, Initial residual = 2.4531e-06, Final residual = 1.9953e-07, No Iterations 2
GAMG:  Solving for p, Initial residual = 2.9103e-05, Final residual = 2.89067e-06, No Iterations 11
time step continuity errors : sum local = 4.68262e-07, global = -1.64489e-14, cumulative = 5.54288e-13
smoothSolver:  Solving for nuTilda, Initial residual = 1.38124e-05, Final residual = 1.0214e-06, No Iterations 4
bounding nuTilda, min: -0.00511727 max: 0.152031 average: 0.115327
ExecutionTime = 114.85 s  ClockTime = 115 s

Time = 1175

smoothSolver:  Solving for Ux, Initial residual = 1.56463e-05, Final residual = 1.15151e-06, No Iterations 4
smoothSolver:  Solving for Uy, Initial residual = 2.47564e-06, Final residual = 2.02644e-07, No Iterations 2
GAMG:  Solving for p, Initial residual = 2.87966e-05, Final residual = 2.85558e-06, No Iterations 12
time step continuity errors : sum local = 4.60319e-07, global = -1.19093e-14, cumulative = 5.42378e-13
smoothSolver:  Solving for nuTilda, Initial residual = 1.38101e-05, Final residual = 1.02055e-06, No Iterations 4
bounding nuTilda, min: -0.00511402 max: 0.152041 average: 0.115326
ExecutionTime = 114.97 s  ClockTime = 115 s

Time = 1176

smoothSolver:  Solving for Ux, Initial residual = 1.56303e-05, Final residual = 1.15069e-06, No Iterations 4
smoothSolver:  Solving for Uy, Initial residual = 2.47527e-06, Final residual = 1.99305e-07, No Iterations 2
GAMG:  Solving for p, Initial residual = 3.01882e-05, Final residual = 2.95247e-06, No Iterations 10
time step continuity errors : sum local = 4.7857e-07, global = -1.32802e-14, cumulative = 5.29098e-13
smoothSolver:  Solving for nuTilda, Initial residual = 1.37942e-05, Final residual = 1.02002e-06, No Iterations 4
bounding nuTilda, min: -0.00511065 max: 0.15205 average: 0.115324
ExecutionTime = 115.07 s  ClockTime = 115 s

Time = 1177

smoothSolver:  Solving for Ux, Initial residual = 1.56094e-05, Final residual = 1.14993e-06, No Iterations 4
smoothSolver:  Solving for Uy, Initial residual = 2.48369e-06, Final residual = 2.00672e-07, No Iterations 2
GAMG:  Solving for p, Initial residual = 2.83951e-05, Final residual = 2.83411e-06, No Iterations 12
time step continuity errors : sum local = 4.57465e-07, global = -1.55902e-14, cumulative = 5.13508e-13
smoothSolver:  Solving for nuTilda, Initial residual = 1.37929e-05, Final residual = 1.01917e-06, No Iterations 4
bounding nuTilda, min: -0.00510742 max: 0.15206 average: 0.115323
ExecutionTime = 115.17 s  ClockTime = 115 s

Time = 1178

smoothSolver:  Solving for Ux, Initial residual = 1.5608e-05, Final residual = 1.14936e-06, No Iterations 4
smoothSolver:  Solving for Uy, Initial residual = 2.46311e-06, Final residual = 1.97411e-07, No Iterations 2
GAMG:  Solving for p, Initial residual = 2.89714e-05, Final residual = 2.87694e-06, No Iterations 11
time step continuity errors : sum local = 4.66273e-07, global = 7.65164e-16, cumulative = 5.14273e-13
smoothSolver:  Solving for nuTilda, Initial residual = 1.37761e-05, Final residual = 1.01863e-06, No Iterations 4
bounding nuTilda, min: -0.00510412 max: 0.15207 average: 0.115322
ExecutionTime = 115.27 s  ClockTime = 115 s

Time = 1179

smoothSolver:  Solving for Ux, Initial residual = 1.56145e-05, Final residual = 1.14892e-06, No Iterations 4
smoothSolver:  Solving for Uy, Initial residual = 2.48564e-06, Final residual = 2.00554e-07, No Iterations 2
GAMG:  Solving for p, Initial residual = 2.86634e-05, Final residual = 2.84518e-06, No Iterations 12
time step continuity errors : sum local = 4.58869e-07, global = -1.665e-16, cumulative = 5.14107e-13
smoothSolver:  Solving for nuTilda, Initial residual = 1.3774e-05, Final residual = 1.01777e-06, No Iterations 4
bounding nuTilda, min: -0.00510088 max: 0.15208 average: 0.115321
ExecutionTime = 115.37 s  ClockTime = 116 s

Time = 1180

smoothSolver:  Solving for Ux, Initial residual = 1.55987e-05, Final residual = 1.1481e-06, No Iterations 4
smoothSolver:  Solving for Uy, Initial residual = 2.48521e-06, Final residual = 1.97199e-07, No Iterations 2
GAMG:  Solving for p, Initial residual = 3.00528e-05, Final residual = 2.94256e-06, No Iterations 10
time step continuity errors : sum local = 4.77171e-07, global = 2.93902e-15, cumulative = 5.17046e-13
smoothSolver:  Solving for nuTilda, Initial residual = 1.37582e-05, Final residual = 1.01724e-06, No Iterations 4
bounding nuTilda, min: -0.00509753 max: 0.15209 average: 0.11532
ExecutionTime = 115.46 s  ClockTime = 116 s

Time = 1181

smoothSolver:  Solving for Ux, Initial residual = 1.55778e-05, Final residual = 1.14734e-06, No Iterations 4
smoothSolver:  Solving for Uy, Initial residual = 2.49378e-06, Final residual = 1.98569e-07, No Iterations 2
GAMG:  Solving for p, Initial residual = 2.82475e-05, Final residual = 2.82254e-06, No Iterations 12
time step continuity errors : sum local = 4.55815e-07, global = 1.1113e-14, cumulative = 5.28159e-13
smoothSolver:  Solving for nuTilda, Initial residual = 1.37564e-05, Final residual = 1.01637e-06, No Iterations 4
bounding nuTilda, min: -0.00509431 max: 0.1521 average: 0.115318
ExecutionTime = 115.56 s  ClockTime = 116 s

Time = 1182

smoothSolver:  Solving for Ux, Initial residual = 1.55764e-05, Final residual = 1.14677e-06, No Iterations 4
smoothSolver:  Solving for Uy, Initial residual = 2.47341e-06, Final residual = 1.95336e-07, No Iterations 2
GAMG:  Solving for p, Initial residual = 2.88298e-05, Final residual = 2.8617e-06, No Iterations 11
time step continuity errors : sum local = 4.64019e-07, global = -5.10424e-15, cumulative = 5.23054e-13
smoothSolver:  Solving for nuTilda, Initial residual = 1.37393e-05, Final residual = 1.01583e-06, No Iterations 4
bounding nuTilda, min: -0.00509102 max: 0.15211 average: 0.115317
ExecutionTime = 115.66 s  ClockTime = 116 s

Time = 1183

smoothSolver:  Solving for Ux, Initial residual = 1.5583e-05, Final residual = 1.14634e-06, No Iterations 4
smoothSolver:  Solving for Uy, Initial residual = 2.4962e-06, Final residual = 1.9853e-07, No Iterations 2
GAMG:  Solving for p, Initial residual = 2.85371e-05, Final residual = 2.82962e-06, No Iterations 12
time step continuity errors : sum local = 4.56597e-07, global = 4.69624e-15, cumulative = 5.27751e-13
smoothSolver:  Solving for nuTilda, Initial residual = 1.37369e-05, Final residual = 1.01498e-06, No Iterations 4
bounding nuTilda, min: -0.00508779 max: 0.15212 average: 0.115316
ExecutionTime = 115.77 s  ClockTime = 116 s

Time = 1184

smoothSolver:  Solving for Ux, Initial residual = 1.55673e-05, Final residual = 1.14551e-06, No Iterations 4
smoothSolver:  Solving for Uy, Initial residual = 2.49592e-06, Final residual = 1.9521e-07, No Iterations 2
GAMG:  Solving for p, Initial residual = 2.99403e-05, Final residual = 2.92556e-06, No Iterations 10
time step continuity errors : sum local = 4.74648e-07, global = -1.17659e-14, cumulative = 5.15985e-13
smoothSolver:  Solving for nuTilda, Initial residual = 1.3721e-05, Final residual = 1.01446e-06, No Iterations 4
bounding nuTilda, min: -0.00508445 max: 0.15213 average: 0.115315
ExecutionTime = 115.85 s  ClockTime = 116 s

Time = 1185

smoothSolver:  Solving for Ux, Initial residual = 1.55467e-05, Final residual = 1.14476e-06, No Iterations 4
smoothSolver:  Solving for Uy, Initial residual = 2.50456e-06, Final residual = 1.96595e-07, No Iterations 2
GAMG:  Solving for p, Initial residual = 2.815e-05, Final residual = 2.80617e-06, No Iterations 12
time step continuity errors : sum local = 4.53404e-07, global = 2.20422e-15, cumulative = 5.18189e-13
smoothSolver:  Solving for nuTilda, Initial residual = 1.37197e-05, Final residual = 1.01361e-06, No Iterations 4
bounding nuTilda, min: -0.00508124 max: 0.15214 average: 0.115314
ExecutionTime = 115.95 s  ClockTime = 116 s

Time = 1186

smoothSolver:  Solving for Ux, Initial residual = 1.55455e-05, Final residual = 1.14419e-06, No Iterations 4
smoothSolver:  Solving for Uy, Initial residual = 2.48412e-06, Final residual = 1.93363e-07, No Iterations 2
GAMG:  Solving for p, Initial residual = 2.87378e-05, Final residual = 2.84569e-06, No Iterations 11
time step continuity errors : sum local = 4.61636e-07, global = -1.75147e-14, cumulative = 5.00674e-13
smoothSolver:  Solving for nuTilda, Initial residual = 1.3703e-05, Final residual = 1.01309e-06, No Iterations 4
bounding nuTilda, min: -0.00507796 max: 0.152151 average: 0.115312
ExecutionTime = 116.05 s  ClockTime = 116 s

Time = 1187

smoothSolver:  Solving for Ux, Initial residual = 1.55521e-05, Final residual = 1.14376e-06, No Iterations 4
smoothSolver:  Solving for Uy, Initial residual = 2.50685e-06, Final residual = 1.96565e-07, No Iterations 2
GAMG:  Solving for p, Initial residual = 2.84483e-05, Final residual = 2.81468e-06, No Iterations 12
time step continuity errors : sum local = 4.5441e-07, global = 6.96302e-15, cumulative = 5.07637e-13
smoothSolver:  Solving for nuTilda, Initial residual = 1.37007e-05, Final residual = 1.01225e-06, No Iterations 4
bounding nuTilda, min: -0.00507474 max: 0.152161 average: 0.115311
ExecutionTime = 116.15 s  ClockTime = 116 s

Time = 1188

smoothSolver:  Solving for Ux, Initial residual = 1.55366e-05, Final residual = 1.14294e-06, No Iterations 4
smoothSolver:  Solving for Uy, Initial residual = 2.50656e-06, Final residual = 1.93264e-07, No Iterations 2
GAMG:  Solving for p, Initial residual = 2.98632e-05, Final residual = 2.90953e-06, No Iterations 10
time step continuity errors : sum local = 4.72258e-07, global = 1.56749e-14, cumulative = 5.23312e-13
smoothSolver:  Solving for nuTilda, Initial residual = 1.3685e-05, Final residual = 1.01174e-06, No Iterations 4
bounding nuTilda, min: -0.00507141 max: 0.152171 average: 0.11531
ExecutionTime = 116.25 s  ClockTime = 116 s

Time = 1189

smoothSolver:  Solving for Ux, Initial residual = 1.5516e-05, Final residual = 1.14219e-06, No Iterations 4
smoothSolver:  Solving for Uy, Initial residual = 2.51532e-06, Final residual = 1.94676e-07, No Iterations 2
GAMG:  Solving for p, Initial residual = 2.80819e-05, Final residual = 2.78885e-06, No Iterations 12
time step continuity errors : sum local = 4.50824e-07, global = -3.48462e-15, cumulative = 5.19828e-13
smoothSolver:  Solving for nuTilda, Initial residual = 1.36843e-05, Final residual = 1.01091e-06, No Iterations 4
bounding nuTilda, min: -0.00506821 max: 0.152181 average: 0.115309
ExecutionTime = 116.35 s  ClockTime = 117 s

Time = 1190

smoothSolver:  Solving for Ux, Initial residual = 1.55149e-05, Final residual = 1.14162e-06, No Iterations 4
smoothSolver:  Solving for Uy, Initial residual = 2.49492e-06, Final residual = 1.91464e-07, No Iterations 2
GAMG:  Solving for p, Initial residual = 2.86811e-05, Final residual = 2.82751e-06, No Iterations 11
time step continuity errors : sum local = 4.58893e-07, global = 4.0065e-15, cumulative = 5.23834e-13
smoothSolver:  Solving for nuTilda, Initial residual = 1.36677e-05, Final residual = 1.01041e-06, No Iterations 4
bounding nuTilda, min: -0.00506494 max: 0.152191 average: 0.115308
ExecutionTime = 116.44 s  ClockTime = 117 s

Time = 1191

smoothSolver:  Solving for Ux, Initial residual = 1.55216e-05, Final residual = 1.14119e-06, No Iterations 4
smoothSolver:  Solving for Uy, Initial residual = 2.51773e-06, Final residual = 1.94683e-07, No Iterations 2
GAMG:  Solving for p, Initial residual = 2.8399e-05, Final residual = 2.79842e-06, No Iterations 12
time step continuity errors : sum local = 4.52e-07, global = 5.06742e-15, cumulative = 5.28901e-13
smoothSolver:  Solving for nuTilda, Initial residual = 1.36657e-05, Final residual = 1.00958e-06, No Iterations 4
bounding nuTilda, min: -0.00506173 max: 0.152201 average: 0.115306
ExecutionTime = 116.54 s  ClockTime = 117 s

Time = 1192

smoothSolver:  Solving for Ux, Initial residual = 1.55063e-05, Final residual = 1.14038e-06, No Iterations 4
smoothSolver:  Solving for Uy, Initial residual = 2.51744e-06, Final residual = 1.91394e-07, No Iterations 2
GAMG:  Solving for p, Initial residual = 2.98067e-05, Final residual = 2.89601e-06, No Iterations 10
time step continuity errors : sum local = 4.70259e-07, global = 1.31111e-14, cumulative = 5.42012e-13
smoothSolver:  Solving for nuTilda, Initial residual = 1.36498e-05, Final residual = 1.00906e-06, No Iterations 4
bounding nuTilda, min: -0.00505841 max: 0.152211 average: 0.115305
ExecutionTime = 116.63 s  ClockTime = 117 s

Time = 1193

smoothSolver:  Solving for Ux, Initial residual = 1.54859e-05, Final residual = 1.13963e-06, No Iterations 4
smoothSolver:  Solving for Uy, Initial residual = 2.52618e-06, Final residual = 1.92835e-07, No Iterations 2
GAMG:  Solving for p, Initial residual = 2.80137e-05, Final residual = 2.77269e-06, No Iterations 12
time step continuity errors : sum local = 4.48416e-07, global = 1.48385e-14, cumulative = 5.56851e-13
smoothSolver:  Solving for nuTilda, Initial residual = 1.36486e-05, Final residual = 1.00822e-06, No Iterations 4
bounding nuTilda, min: -0.00505521 max: 0.152221 average: 0.115304
ExecutionTime = 116.73 s  ClockTime = 117 s

Time = 1194

smoothSolver:  Solving for Ux, Initial residual = 1.54848e-05, Final residual = 1.13906e-06, No Iterations 4
smoothSolver:  Solving for Uy, Initial residual = 2.50566e-06, Final residual = 1.89643e-07, No Iterations 2
GAMG:  Solving for p, Initial residual = 2.85955e-05, Final residual = 2.81028e-06, No Iterations 11
time step continuity errors : sum local = 4.56288e-07, global = -2.27854e-14, cumulative = 5.34066e-13
smoothSolver:  Solving for nuTilda, Initial residual = 1.36319e-05, Final residual = 1.0077e-06, No Iterations 4
bounding nuTilda, min: -0.00505195 max: 0.152231 average: 0.115303
ExecutionTime = 116.83 s  ClockTime = 117 s

Time = 1195

smoothSolver:  Solving for Ux, Initial residual = 1.54916e-05, Final residual = 1.13864e-06, No Iterations 4
smoothSolver:  Solving for Uy, Initial residual = 2.52835e-06, Final residual = 1.92889e-07, No Iterations 2
GAMG:  Solving for p, Initial residual = 2.83005e-05, Final residual = 2.78056e-06, No Iterations 12
time step continuity errors : sum local = 4.49322e-07, global = 9.01475e-15, cumulative = 5.4308e-13
smoothSolver:  Solving for nuTilda, Initial residual = 1.36298e-05, Final residual = 1.00686e-06, No Iterations 4
bounding nuTilda, min: -0.00504875 max: 0.152242 average: 0.115302
ExecutionTime = 116.93 s  ClockTime = 117 s

Time = 1196

smoothSolver:  Solving for Ux, Initial residual = 1.54763e-05, Final residual = 1.13782e-06, No Iterations 4
smoothSolver:  Solving for Uy, Initial residual = 2.52797e-06, Final residual = 1.89615e-07, No Iterations 2
GAMG:  Solving for p, Initial residual = 2.97193e-05, Final residual = 2.8737e-06, No Iterations 10
time step continuity errors : sum local = 4.66847e-07, global = -1.47844e-14, cumulative = 5.28296e-13
smoothSolver:  Solving for nuTilda, Initial residual = 1.36139e-05, Final residual = 1.00635e-06, No Iterations 4
bounding nuTilda, min: -0.00504544 max: 0.152252 average: 0.1153
ExecutionTime = 117.02 s  ClockTime = 117 s

Time = 1197

smoothSolver:  Solving for Ux, Initial residual = 1.54561e-05, Final residual = 1.13708e-06, No Iterations 4
smoothSolver:  Solving for Uy, Initial residual = 2.53671e-06, Final residual = 1.91072e-07, No Iterations 2
GAMG:  Solving for p, Initial residual = 2.79416e-05, Final residual = 2.75315e-06, No Iterations 12
time step continuity errors : sum local = 4.45457e-07, global = 5.1043e-15, cumulative = 5.334e-13
smoothSolver:  Solving for nuTilda, Initial residual = 1.36127e-05, Final residual = 1.00551e-06, No Iterations 4
bounding nuTilda, min: -0.00504225 max: 0.152262 average: 0.115299
ExecutionTime = 117.12 s  ClockTime = 117 s

Time = 1198

smoothSolver:  Solving for Ux, Initial residual = 1.54551e-05, Final residual = 1.13651e-06, No Iterations 4
smoothSolver:  Solving for Uy, Initial residual = 2.51615e-06, Final residual = 1.87885e-07, No Iterations 2
GAMG:  Solving for p, Initial residual = 2.85312e-05, Final residual = 2.78937e-06, No Iterations 11
time step continuity errors : sum local = 4.53085e-07, global = 2.67828e-14, cumulative = 5.60183e-13
smoothSolver:  Solving for nuTilda, Initial residual = 1.3596e-05, Final residual = 1.00499e-06, No Iterations 4
bounding nuTilda, min: -0.005039 max: 0.152272 average: 0.115298
ExecutionTime = 117.22 s  ClockTime = 117 s

Time = 1199

smoothSolver:  Solving for Ux, Initial residual = 1.54619e-05, Final residual = 1.13609e-06, No Iterations 4
smoothSolver:  Solving for Uy, Initial residual = 2.53875e-06, Final residual = 1.91136e-07, No Iterations 2
GAMG:  Solving for p, Initial residual = 2.82439e-05, Final residual = 2.76249e-06, No Iterations 12
time step continuity errors : sum local = 4.46598e-07, global = -1.05262e-14, cumulative = 5.49657e-13
smoothSolver:  Solving for nuTilda, Initial residual = 1.3594e-05, Final residual = 1.00416e-06, No Iterations 4
bounding nuTilda, min: -0.00503581 max: 0.152282 average: 0.115297
ExecutionTime = 117.32 s  ClockTime = 117 s

Time = 1200

smoothSolver:  Solving for Ux, Initial residual = 1.54468e-05, Final residual = 1.13528e-06, No Iterations 4
smoothSolver:  Solving for Uy, Initial residual = 2.53823e-06, Final residual = 1.87873e-07, No Iterations 2
GAMG:  Solving for p, Initial residual = 2.96628e-05, Final residual = 2.85611e-06, No Iterations 10
time step continuity errors : sum local = 4.64171e-07, global = 1.46538e-14, cumulative = 5.64311e-13
smoothSolver:  Solving for nuTilda, Initial residual = 1.35782e-05, Final residual = 1.00366e-06, No Iterations 4
bounding nuTilda, min: -0.00503251 max: 0.152293 average: 0.115296
ExecutionTime = 117.56 s  ClockTime = 118 s

End

