/*---------------------------------------------------------------------------*\
| =========                 |                                                 |
| \\      /  F ield         | OpenFOAM: The Open Source CFD Toolbox           |
|  \\    /   O peration     | Version:  5.x                                   |
|   \\  /    A nd           | Web:      www.OpenFOAM.org                      |
|    \\/     M anipulation  |                                                 |
\*---------------------------------------------------------------------------*/
Build  : 5.x-68e8507efb72
Exec   : simpleFoam
Date   : Feb 04 2022
Time   : 11:22:15
Host   : "Desktop-PC"
PID    : 23968
I/O    : uncollated
Case   : /home/emilio/code/flow-separation-prediction/openfoam/run/Airfold2D_full
nProcs : 1
sigFpe : Enabling floating point exception trapping (FOAM_SIGFPE).
fileModificationChecking : Monitoring run-time modified files using timeStampMaster (fileModificationSkew 10)
allowSystemOperations : Allowing user-supplied system call operations

// * * * * * * * * * * * * * * * * * * * * * * * * * * * * * * * * * * * * * //
Create time

Create mesh for time = 0


SIMPLE: convergence criteria
    field p	 tolerance 1e-05
    field U	 tolerance 1e-05
    field nuTilda	 tolerance 1e-05

Reading field p

Reading field U

Reading/calculating face flux field phi

Selecting incompressible transport model Newtonian
Selecting turbulence model type RAS
Selecting RAS turbulence model SpalartAllmaras
Selecting patchDistMethod meshWave
RAS
{
    RASModel        SpalartAllmaras;
    turbulence      on;
    printCoeffs     on;
    sigmaNut        0.66666;
    kappa           0.41;
    Cb1             0.1355;
    Cb2             0.622;
    Cw2             0.3;
    Cw3             2;
    Cv1             7.1;
    Cs              0.3;
}

No MRF models present

No finite volume options present


Starting time loop

Time = 1

smoothSolver:  Solving for Ux, Initial residual = 1, Final residual = 0.059861, No Iterations 2
smoothSolver:  Solving for Uy, Initial residual = 1, Final residual = 0.0717969, No Iterations 2
GAMG:  Solving for p, Initial residual = 1, Final residual = 0.0698113, No Iterations 7
time step continuity errors : sum local = 0.000829417, global = -4.54679e-16, cumulative = -4.54679e-16
smoothSolver:  Solving for nuTilda, Initial residual = 1, Final residual = 0.0177536, No Iterations 2
ExecutionTime = 0.08 s  ClockTime = 0 s

Time = 2

smoothSolver:  Solving for Ux, Initial residual = 0.483317, Final residual = 0.0131937, No Iterations 4
smoothSolver:  Solving for Uy, Initial residual = 0.549654, Final residual = 0.0186129, No Iterations 4
GAMG:  Solving for p, Initial residual = 0.815558, Final residual = 0.0727661, No Iterations 3
time step continuity errors : sum local = 0.00266135, global = 6.98184e-17, cumulative = -3.8486e-16
smoothSolver:  Solving for nuTilda, Initial residual = 0.118174, Final residual = 0.00626263, No Iterations 2
ExecutionTime = 0.1 s  ClockTime = 0 s

Time = 3

smoothSolver:  Solving for Ux, Initial residual = 0.129586, Final residual = 0.00253602, No Iterations 4
smoothSolver:  Solving for Uy, Initial residual = 0.147279, Final residual = 0.00374863, No Iterations 4
GAMG:  Solving for p, Initial residual = 0.829098, Final residual = 0.0769238, No Iterations 4
time step continuity errors : sum local = 0.00427349, global = -2.6646e-16, cumulative = -6.5132e-16
smoothSolver:  Solving for nuTilda, Initial residual = 0.0380834, Final residual = 0.000591806, No Iterations 4
ExecutionTime = 0.12 s  ClockTime = 0 s

Time = 4

smoothSolver:  Solving for Ux, Initial residual = 0.0418142, Final residual = 0.000990815, No Iterations 4
smoothSolver:  Solving for Uy, Initial residual = 0.0599617, Final residual = 0.00158785, No Iterations 4
GAMG:  Solving for p, Initial residual = 0.817382, Final residual = 0.0683339, No Iterations 4
time step continuity errors : sum local = 0.00329465, global = 2.92766e-16, cumulative = -3.58554e-16
smoothSolver:  Solving for nuTilda, Initial residual = 0.0199899, Final residual = 0.000393314, No Iterations 4
ExecutionTime = 0.14 s  ClockTime = 0 s

Time = 5

smoothSolver:  Solving for Ux, Initial residual = 0.0929172, Final residual = 0.00195934, No Iterations 4
smoothSolver:  Solving for Uy, Initial residual = 0.123068, Final residual = 0.00263634, No Iterations 4
GAMG:  Solving for p, Initial residual = 0.772711, Final residual = 0.0768702, No Iterations 3
time step continuity errors : sum local = 0.00392316, global = -3.9767e-16, cumulative = -7.56224e-16
smoothSolver:  Solving for nuTilda, Initial residual = 0.0139927, Final residual = 0.000284378, No Iterations 4
ExecutionTime = 0.16 s  ClockTime = 0 s

Time = 6

smoothSolver:  Solving for Ux, Initial residual = 0.133669, Final residual = 0.0116836, No Iterations 2
smoothSolver:  Solving for Uy, Initial residual = 0.1819, Final residual = 0.00320246, No Iterations 4
GAMG:  Solving for p, Initial residual = 0.80906, Final residual = 0.0511271, No Iterations 4
time step continuity errors : sum local = 0.00232736, global = -3.12611e-16, cumulative = -1.06883e-15
smoothSolver:  Solving for nuTilda, Initial residual = 0.0111204, Final residual = 0.000219212, No Iterations 4
ExecutionTime = 0.18 s  ClockTime = 0 s

Time = 7

smoothSolver:  Solving for Ux, Initial residual = 0.0857104, Final residual = 0.00702786, No Iterations 2
smoothSolver:  Solving for Uy, Initial residual = 0.172043, Final residual = 0.00359281, No Iterations 4
GAMG:  Solving for p, Initial residual = 0.834434, Final residual = 0.04839, No Iterations 4
time step continuity errors : sum local = 0.00189529, global = -6.47769e-16, cumulative = -1.7166e-15
smoothSolver:  Solving for nuTilda, Initial residual = 0.00913827, Final residual = 0.000170174, No Iterations 4
bounding nuTilda, min: -0.000463432 max: 0.140234 average: 0.12889
ExecutionTime = 0.2 s  ClockTime = 0 s

Time = 8

smoothSolver:  Solving for Ux, Initial residual = 0.0610653, Final residual = 0.00607589, No Iterations 2
smoothSolver:  Solving for Uy, Initial residual = 0.105724, Final residual = 0.0104944, No Iterations 2
GAMG:  Solving for p, Initial residual = 0.788436, Final residual = 0.0528068, No Iterations 4
time step continuity errors : sum local = 0.002014, global = 2.97346e-16, cumulative = -1.41926e-15
smoothSolver:  Solving for nuTilda, Initial residual = 0.007744, Final residual = 0.0001372, No Iterations 4
ExecutionTime = 0.22 s  ClockTime = 0 s

Time = 9

smoothSolver:  Solving for Ux, Initial residual = 0.0768877, Final residual = 0.00618656, No Iterations 2
smoothSolver:  Solving for Uy, Initial residual = 0.084273, Final residual = 0.00802437, No Iterations 2
GAMG:  Solving for p, Initial residual = 0.779129, Final residual = 0.0391864, No Iterations 4
time step continuity errors : sum local = 0.00136056, global = 4.95409e-16, cumulative = -9.23848e-16
smoothSolver:  Solving for nuTilda, Initial residual = 0.00674869, Final residual = 0.000116783, No Iterations 4
bounding nuTilda, min: -9.76815e-05 max: 0.140355 average: 0.127661
ExecutionTime = 0.24 s  ClockTime = 0 s

Time = 10

smoothSolver:  Solving for Ux, Initial residual = 0.0534708, Final residual = 0.00381165, No Iterations 2
smoothSolver:  Solving for Uy, Initial residual = 0.0490104, Final residual = 0.00482709, No Iterations 2
GAMG:  Solving for p, Initial residual = 0.78488, Final residual = 0.0544513, No Iterations 4
time step continuity errors : sum local = 0.00181458, global = 7.69996e-16, cumulative = -1.53853e-16
smoothSolver:  Solving for nuTilda, Initial residual = 0.00604267, Final residual = 0.00010323, No Iterations 4
ExecutionTime = 0.25 s  ClockTime = 0 s

Time = 11

smoothSolver:  Solving for Ux, Initial residual = 0.0319607, Final residual = 0.00263388, No Iterations 2
smoothSolver:  Solving for Uy, Initial residual = 0.0369351, Final residual = 0.00337556, No Iterations 2
GAMG:  Solving for p, Initial residual = 0.74307, Final residual = 0.0533292, No Iterations 4
time step continuity errors : sum local = 0.00169606, global = 2.66234e-16, cumulative = 1.12382e-16
smoothSolver:  Solving for nuTilda, Initial residual = 0.00558856, Final residual = 9.43466e-05, No Iterations 4
ExecutionTime = 0.27 s  ClockTime = 0 s

Time = 12

smoothSolver:  Solving for Ux, Initial residual = 0.0374729, Final residual = 0.00301993, No Iterations 2
smoothSolver:  Solving for Uy, Initial residual = 0.0552526, Final residual = 0.00523404, No Iterations 2
GAMG:  Solving for p, Initial residual = 0.703448, Final residual = 0.042536, No Iterations 4
time step continuity errors : sum local = 0.00120371, global = -2.26243e-16, cumulative = -1.13861e-16
smoothSolver:  Solving for nuTilda, Initial residual = 0.00522828, Final residual = 8.70765e-05, No Iterations 4
bounding nuTilda, min: -0.000131633 max: 0.140514 average: 0.126205
ExecutionTime = 0.29 s  ClockTime = 0 s

Time = 13

smoothSolver:  Solving for Ux, Initial residual = 0.0314656, Final residual = 0.00207851, No Iterations 2
smoothSolver:  Solving for Uy, Initial residual = 0.0455195, Final residual = 0.000772975, No Iterations 4
GAMG:  Solving for p, Initial residual = 0.710864, Final residual = 0.0661159, No Iterations 3
time step continuity errors : sum local = 0.00177742, global = -4.92316e-16, cumulative = -6.06177e-16
smoothSolver:  Solving for nuTilda, Initial residual = 0.00490869, Final residual = 8.0579e-05, No Iterations 4
bounding nuTilda, min: -0.00230633 max: 0.140557 average: 0.125782
ExecutionTime = 0.31 s  ClockTime = 0 s

Time = 14

smoothSolver:  Solving for Ux, Initial residual = 0.0268246, Final residual = 0.00189817, No Iterations 2
smoothSolver:  Solving for Uy, Initial residual = 0.0364059, Final residual = 0.00338308, No Iterations 2
GAMG:  Solving for p, Initial residual = 0.656109, Final residual = 0.0398712, No Iterations 4
time step continuity errors : sum local = 0.00103027, global = -2.01455e-16, cumulative = -8.07632e-16
smoothSolver:  Solving for nuTilda, Initial residual = 0.00459028, Final residual = 7.4257e-05, No Iterations 4
bounding nuTilda, min: -0.00212227 max: 0.140605 average: 0.125389
ExecutionTime = 0.33 s  ClockTime = 0 s

Time = 15

smoothSolver:  Solving for Ux, Initial residual = 0.0280464, Final residual = 0.00215105, No Iterations 2
smoothSolver:  Solving for Uy, Initial residual = 0.0380203, Final residual = 0.00287067, No Iterations 2
GAMG:  Solving for p, Initial residual = 0.655785, Final residual = 0.0398588, No Iterations 4
time step continuity errors : sum local = 0.000871183, global = -1.38837e-16, cumulative = -9.46468e-16
smoothSolver:  Solving for nuTilda, Initial residual = 0.00428845, Final residual = 6.90065e-05, No Iterations 4
bounding nuTilda, min: -0.00203363 max: 0.140656 average: 0.125025
ExecutionTime = 0.34 s  ClockTime = 0 s

Time = 16

smoothSolver:  Solving for Ux, Initial residual = 0.0243844, Final residual = 0.00181263, No Iterations 2
smoothSolver:  Solving for Uy, Initial residual = 0.0294882, Final residual = 0.00239384, No Iterations 2
GAMG:  Solving for p, Initial residual = 0.637134, Final residual = 0.0589078, No Iterations 3
time step continuity errors : sum local = 0.00124124, global = 6.15279e-16, cumulative = -3.31189e-16
smoothSolver:  Solving for nuTilda, Initial residual = 0.00405211, Final residual = 6.54344e-05, No Iterations 4
bounding nuTilda, min: -0.00186549 max: 0.140718 average: 0.124683
ExecutionTime = 0.36 s  ClockTime = 0 s

Time = 17

smoothSolver:  Solving for Ux, Initial residual = 0.0204871, Final residual = 0.00149067, No Iterations 2
smoothSolver:  Solving for Uy, Initial residual = 0.021102, Final residual = 0.00174991, No Iterations 2
GAMG:  Solving for p, Initial residual = 0.632128, Final residual = 0.053305, No Iterations 3
time step continuity errors : sum local = 0.00102118, global = -4.2006e-16, cumulative = -7.51249e-16
smoothSolver:  Solving for nuTilda, Initial residual = 0.00386938, Final residual = 6.2862e-05, No Iterations 4
bounding nuTilda, min: -0.00123839 max: 0.140779 average: 0.12436
ExecutionTime = 0.37 s  ClockTime = 0 s

Time = 18

smoothSolver:  Solving for Ux, Initial residual = 0.0187444, Final residual = 0.00131925, No Iterations 2
smoothSolver:  Solving for Uy, Initial residual = 0.0215088, Final residual = 0.00187852, No Iterations 2
GAMG:  Solving for p, Initial residual = 0.5867, Final residual = 0.0362189, No Iterations 4
time step continuity errors : sum local = 0.000676007, global = 8.12338e-17, cumulative = -6.70015e-16
smoothSolver:  Solving for nuTilda, Initial residual = 0.00372199, Final residual = 6.09707e-05, No Iterations 4
bounding nuTilda, min: -0.000634445 max: 0.140838 average: 0.124053
ExecutionTime = 0.39 s  ClockTime = 0 s

Time = 19

smoothSolver:  Solving for Ux, Initial residual = 0.0142319, Final residual = 0.00104492, No Iterations 2
smoothSolver:  Solving for Uy, Initial residual = 0.0240155, Final residual = 0.00223772, No Iterations 2
GAMG:  Solving for p, Initial residual = 0.559922, Final residual = 0.0495468, No Iterations 3
time step continuity errors : sum local = 0.000873161, global = 4.85115e-16, cumulative = -1.849e-16
smoothSolver:  Solving for nuTilda, Initial residual = 0.00358724, Final residual = 5.92718e-05, No Iterations 4
ExecutionTime = 0.41 s  ClockTime = 0 s

Time = 20

smoothSolver:  Solving for Ux, Initial residual = 0.0138428, Final residual = 0.00100891, No Iterations 2
smoothSolver:  Solving for Uy, Initial residual = 0.021271, Final residual = 0.00196246, No Iterations 2
GAMG:  Solving for p, Initial residual = 0.538367, Final residual = 0.0435796, No Iterations 3
time step continuity errors : sum local = 0.000744744, global = -1.32981e-16, cumulative = -3.17882e-16
smoothSolver:  Solving for nuTilda, Initial residual = 0.00346112, Final residual = 5.76619e-05, No Iterations 4
bounding nuTilda, min: -0.00222795 max: 0.140959 average: 0.123475
ExecutionTime = 0.42 s  ClockTime = 0 s

Time = 21

smoothSolver:  Solving for Ux, Initial residual = 0.0146028, Final residual = 0.00106498, No Iterations 2
smoothSolver:  Solving for Uy, Initial residual = 0.0166492, Final residual = 0.00135864, No Iterations 2
GAMG:  Solving for p, Initial residual = 0.529828, Final residual = 0.0445994, No Iterations 3
time step continuity errors : sum local = 0.000724025, global = 1.19317e-16, cumulative = -1.98565e-16
smoothSolver:  Solving for nuTilda, Initial residual = 0.00334683, Final residual = 5.62191e-05, No Iterations 4
bounding nuTilda, min: -0.00147485 max: 0.141032 average: 0.123202
ExecutionTime = 0.44 s  ClockTime = 0 s

Time = 22

smoothSolver:  Solving for Ux, Initial residual = 0.0138973, Final residual = 0.00107295, No Iterations 2
smoothSolver:  Solving for Uy, Initial residual = 0.0149798, Final residual = 0.0010456, No Iterations 2
GAMG:  Solving for p, Initial residual = 0.504277, Final residual = 0.0425222, No Iterations 3
time step continuity errors : sum local = 0.00066049, global = 2.21605e-16, cumulative = 2.30398e-17
smoothSolver:  Solving for nuTilda, Initial residual = 0.00324604, Final residual = 5.50961e-05, No Iterations 4
bounding nuTilda, min: -0.000780611 max: 0.141107 average: 0.122936
ExecutionTime = 0.45 s  ClockTime = 0 s

Time = 23

smoothSolver:  Solving for Ux, Initial residual = 0.0121068, Final residual = 0.000979807, No Iterations 2
smoothSolver:  Solving for Uy, Initial residual = 0.0140341, Final residual = 0.00105805, No Iterations 2
GAMG:  Solving for p, Initial residual = 0.484205, Final residual = 0.0415062, No Iterations 3
time step continuity errors : sum local = 0.000616242, global = 5.16615e-16, cumulative = 5.39655e-16
smoothSolver:  Solving for nuTilda, Initial residual = 0.00315833, Final residual = 5.43052e-05, No Iterations 4
bounding nuTilda, min: -0.000151236 max: 0.141184 average: 0.122676
ExecutionTime = 0.47 s  ClockTime = 0 s

Time = 24

smoothSolver:  Solving for Ux, Initial residual = 0.0115044, Final residual = 0.000894008, No Iterations 2
smoothSolver:  Solving for Uy, Initial residual = 0.0139365, Final residual = 0.00117666, No Iterations 2
GAMG:  Solving for p, Initial residual = 0.473638, Final residual = 0.0339222, No Iterations 3
time step continuity errors : sum local = 0.000493618, global = -4.7718e-16, cumulative = 6.24749e-17
smoothSolver:  Solving for nuTilda, Initial residual = 0.00308061, Final residual = 5.36619e-05, No Iterations 4
ExecutionTime = 0.48 s  ClockTime = 0 s

Time = 25

smoothSolver:  Solving for Ux, Initial residual = 0.0112515, Final residual = 0.000849605, No Iterations 2
smoothSolver:  Solving for Uy, Initial residual = 0.0142179, Final residual = 0.00124069, No Iterations 2
GAMG:  Solving for p, Initial residual = 0.454429, Final residual = 0.0287319, No Iterations 3
time step continuity errors : sum local = 0.00041378, global = 4.39457e-16, cumulative = 5.01932e-16
smoothSolver:  Solving for nuTilda, Initial residual = 0.00301119, Final residual = 5.31708e-05, No Iterations 4
ExecutionTime = 0.5 s  ClockTime = 0 s

Time = 26

smoothSolver:  Solving for Ux, Initial residual = 0.0105154, Final residual = 0.000808993, No Iterations 2
smoothSolver:  Solving for Uy, Initial residual = 0.0142864, Final residual = 0.00123122, No Iterations 2
GAMG:  Solving for p, Initial residual = 0.4257, Final residual = 0.030736, No Iterations 3
time step continuity errors : sum local = 0.000428894, global = 8.94418e-17, cumulative = 5.91374e-16
smoothSolver:  Solving for nuTilda, Initial residual = 0.00294561, Final residual = 5.2711e-05, No Iterations 4
ExecutionTime = 0.52 s  ClockTime = 0 s

Time = 27

smoothSolver:  Solving for Ux, Initial residual = 0.00926814, Final residual = 0.00076522, No Iterations 2
smoothSolver:  Solving for Uy, Initial residual = 0.0129852, Final residual = 0.00107952, No Iterations 2
GAMG:  Solving for p, Initial residual = 0.416666, Final residual = 0.0333795, No Iterations 3
time step continuity errors : sum local = 0.000448797, global = 1.66242e-16, cumulative = 7.57615e-16
smoothSolver:  Solving for nuTilda, Initial residual = 0.00288318, Final residual = 5.22629e-05, No Iterations 4
bounding nuTilda, min: -0.000186242 max: 0.141512 average: 0.121687
ExecutionTime = 0.54 s  ClockTime = 0 s

Time = 28

smoothSolver:  Solving for Ux, Initial residual = 0.0091815, Final residual = 0.000762543, No Iterations 2
smoothSolver:  Solving for Uy, Initial residual = 0.011234, Final residual = 0.000915496, No Iterations 2
GAMG:  Solving for p, Initial residual = 0.408591, Final residual = 0.0284381, No Iterations 3
time step continuity errors : sum local = 0.000371509, global = 3.43379e-17, cumulative = 7.91953e-16
smoothSolver:  Solving for nuTilda, Initial residual = 0.00282368, Final residual = 5.1915e-05, No Iterations 4
ExecutionTime = 0.55 s  ClockTime = 0 s

Time = 29

smoothSolver:  Solving for Ux, Initial residual = 0.00972989, Final residual = 0.000759239, No Iterations 2
smoothSolver:  Solving for Uy, Initial residual = 0.0105528, Final residual = 0.000881085, No Iterations 2
GAMG:  Solving for p, Initial residual = 0.393622, Final residual = 0.0228296, No Iterations 3
time step continuity errors : sum local = 0.000290133, global = -6.44305e-17, cumulative = 7.27523e-16
smoothSolver:  Solving for nuTilda, Initial residual = 0.00276694, Final residual = 5.16619e-05, No Iterations 4
ExecutionTime = 0.57 s  ClockTime = 1 s

Time = 30

smoothSolver:  Solving for Ux, Initial residual = 0.00978201, Final residual = 0.000750827, No Iterations 2
smoothSolver:  Solving for Uy, Initial residual = 0.0104183, Final residual = 0.000906966, No Iterations 2
GAMG:  Solving for p, Initial residual = 0.379415, Final residual = 0.0249565, No Iterations 3
time step continuity errors : sum local = 0.000310409, global = 6.56872e-16, cumulative = 1.38439e-15
smoothSolver:  Solving for nuTilda, Initial residual = 0.00271406, Final residual = 5.14956e-05, No Iterations 4
ExecutionTime = 0.58 s  ClockTime = 1 s

Time = 31

smoothSolver:  Solving for Ux, Initial residual = 0.00947491, Final residual = 0.000741258, No Iterations 2
smoothSolver:  Solving for Uy, Initial residual = 0.0102813, Final residual = 0.000913277, No Iterations 2
GAMG:  Solving for p, Initial residual = 0.364536, Final residual = 0.0276117, No Iterations 3
time step continuity errors : sum local = 0.00033818, global = -8.06921e-16, cumulative = 5.77474e-16
smoothSolver:  Solving for nuTilda, Initial residual = 0.00266132, Final residual = 5.13686e-05, No Iterations 4
ExecutionTime = 0.6 s  ClockTime = 1 s

Time = 32

smoothSolver:  Solving for Ux, Initial residual = 0.00898179, Final residual = 0.000739068, No Iterations 2
smoothSolver:  Solving for Uy, Initial residual = 0.0102948, Final residual = 0.000915014, No Iterations 2
GAMG:  Solving for p, Initial residual = 0.3548, Final residual = 0.0247162, No Iterations 3
time step continuity errors : sum local = 0.000297206, global = 2.18593e-16, cumulative = 7.96066e-16
smoothSolver:  Solving for nuTilda, Initial residual = 0.00260878, Final residual = 5.12439e-05, No Iterations 4
ExecutionTime = 0.62 s  ClockTime = 1 s

Time = 33

smoothSolver:  Solving for Ux, Initial residual = 0.00850386, Final residual = 0.000732248, No Iterations 2
smoothSolver:  Solving for Uy, Initial residual = 0.0100506, Final residual = 0.000896033, No Iterations 2
GAMG:  Solving for p, Initial residual = 0.34016, Final residual = 0.0194622, No Iterations 3
time step continuity errors : sum local = 0.000231559, global = 6.2804e-16, cumulative = 1.42411e-15
smoothSolver:  Solving for nuTilda, Initial residual = 0.0025589, Final residual = 5.11826e-05, No Iterations 4
ExecutionTime = 0.63 s  ClockTime = 1 s

Time = 34

smoothSolver:  Solving for Ux, Initial residual = 0.00809165, Final residual = 0.000714429, No Iterations 2
smoothSolver:  Solving for Uy, Initial residual = 0.00963889, Final residual = 0.000850605, No Iterations 2
GAMG:  Solving for p, Initial residual = 0.323585, Final residual = 0.0192764, No Iterations 3
time step continuity errors : sum local = 0.000226035, global = 3.4602e-16, cumulative = 1.77013e-15
smoothSolver:  Solving for nuTilda, Initial residual = 0.00251135, Final residual = 5.11387e-05, No Iterations 4
ExecutionTime = 0.65 s  ClockTime = 1 s

Time = 35

smoothSolver:  Solving for Ux, Initial residual = 0.00786697, Final residual = 0.000689965, No Iterations 2
smoothSolver:  Solving for Uy, Initial residual = 0.00922034, Final residual = 0.0008149, No Iterations 2
GAMG:  Solving for p, Initial residual = 0.31133, Final residual = 0.0205531, No Iterations 3
time step continuity errors : sum local = 0.000236212, global = -2.06808e-16, cumulative = 1.56332e-15
smoothSolver:  Solving for nuTilda, Initial residual = 0.00246841, Final residual = 5.11671e-05, No Iterations 4
ExecutionTime = 0.67 s  ClockTime = 1 s

Time = 36

smoothSolver:  Solving for Ux, Initial residual = 0.00801478, Final residual = 0.00066921, No Iterations 2
smoothSolver:  Solving for Uy, Initial residual = 0.00874276, Final residual = 0.000790411, No Iterations 2
GAMG:  Solving for p, Initial residual = 0.301464, Final residual = 0.0206733, No Iterations 3
time step continuity errors : sum local = 0.000233332, global = -6.94741e-18, cumulative = 1.55637e-15
smoothSolver:  Solving for nuTilda, Initial residual = 0.00242927, Final residual = 5.12727e-05, No Iterations 4
ExecutionTime = 0.68 s  ClockTime = 1 s

Time = 37

smoothSolver:  Solving for Ux, Initial residual = 0.00836302, Final residual = 0.000660304, No Iterations 2
smoothSolver:  Solving for Uy, Initial residual = 0.00821531, Final residual = 0.000768291, No Iterations 2
GAMG:  Solving for p, Initial residual = 0.291936, Final residual = 0.0220937, No Iterations 3
time step continuity errors : sum local = 0.000245128, global = 5.65886e-16, cumulative = 2.12226e-15
smoothSolver:  Solving for nuTilda, Initial residual = 0.00239103, Final residual = 5.13976e-05, No Iterations 4
ExecutionTime = 0.7 s  ClockTime = 1 s

Time = 38

smoothSolver:  Solving for Ux, Initial residual = 0.00868831, Final residual = 0.000669855, No Iterations 2
smoothSolver:  Solving for Uy, Initial residual = 0.00769406, Final residual = 0.000741459, No Iterations 2
GAMG:  Solving for p, Initial residual = 0.280398, Final residual = 0.0211021, No Iterations 3
time step continuity errors : sum local = 0.000229983, global = 7.13094e-16, cumulative = 2.83535e-15
smoothSolver:  Solving for nuTilda, Initial residual = 0.00235425, Final residual = 5.15681e-05, No Iterations 4
ExecutionTime = 0.71 s  ClockTime = 1 s

Time = 39

smoothSolver:  Solving for Ux, Initial residual = 0.00870818, Final residual = 0.000681477, No Iterations 2
smoothSolver:  Solving for Uy, Initial residual = 0.00763481, Final residual = 0.000735478, No Iterations 2
GAMG:  Solving for p, Initial residual = 0.269595, Final residual = 0.0169482, No Iterations 3
time step continuity errors : sum local = 0.000181592, global = 2.19769e-16, cumulative = 3.05512e-15
smoothSolver:  Solving for nuTilda, Initial residual = 0.00231747, Final residual = 5.16955e-05, No Iterations 4
ExecutionTime = 0.73 s  ClockTime = 1 s

Time = 40

smoothSolver:  Solving for Ux, Initial residual = 0.00844488, Final residual = 0.000687645, No Iterations 2
smoothSolver:  Solving for Uy, Initial residual = 0.0080009, Final residual = 0.000747079, No Iterations 2
GAMG:  Solving for p, Initial residual = 0.256635, Final residual = 0.0147428, No Iterations 3
time step continuity errors : sum local = 0.00015676, global = -1.40892e-16, cumulative = 2.91423e-15
smoothSolver:  Solving for nuTilda, Initial residual = 0.00228145, Final residual = 5.17973e-05, No Iterations 4
ExecutionTime = 0.74 s  ClockTime = 1 s

Time = 41

smoothSolver:  Solving for Ux, Initial residual = 0.00795616, Final residual = 0.000680377, No Iterations 2
smoothSolver:  Solving for Uy, Initial residual = 0.00819651, Final residual = 0.000750144, No Iterations 2
GAMG:  Solving for p, Initial residual = 0.244198, Final residual = 0.018028, No Iterations 3
time step continuity errors : sum local = 0.000189984, global = 5.87565e-16, cumulative = 3.50179e-15
smoothSolver:  Solving for nuTilda, Initial residual = 0.00224678, Final residual = 5.19293e-05, No Iterations 4
ExecutionTime = 0.76 s  ClockTime = 1 s

Time = 42

smoothSolver:  Solving for Ux, Initial residual = 0.00751275, Final residual = 0.000661198, No Iterations 2
smoothSolver:  Solving for Uy, Initial residual = 0.00783216, Final residual = 0.000727089, No Iterations 2
GAMG:  Solving for p, Initial residual = 0.234906, Final residual = 0.0198828, No Iterations 3
time step continuity errors : sum local = 0.000208095, global = 5.27475e-16, cumulative = 4.02927e-15
smoothSolver:  Solving for nuTilda, Initial residual = 0.00221392, Final residual = 5.20594e-05, No Iterations 4
ExecutionTime = 0.78 s  ClockTime = 1 s

Time = 43

smoothSolver:  Solving for Ux, Initial residual = 0.00748405, Final residual = 0.000641432, No Iterations 2
smoothSolver:  Solving for Uy, Initial residual = 0.00706045, Final residual = 0.00068129, No Iterations 2
GAMG:  Solving for p, Initial residual = 0.224397, Final residual = 0.0161209, No Iterations 3
time step continuity errors : sum local = 0.000167591, global = -5.32571e-16, cumulative = 3.4967e-15
smoothSolver:  Solving for nuTilda, Initial residual = 0.00218206, Final residual = 5.21879e-05, No Iterations 4
ExecutionTime = 0.79 s  ClockTime = 1 s

Time = 44

smoothSolver:  Solving for Ux, Initial residual = 0.00756018, Final residual = 0.000623415, No Iterations 2
smoothSolver:  Solving for Uy, Initial residual = 0.00636214, Final residual = 0.000122319, No Iterations 4
GAMG:  Solving for p, Initial residual = 0.216063, Final residual = 0.0149591, No Iterations 3
time step continuity errors : sum local = 0.000153954, global = 7.04868e-16, cumulative = 4.20156e-15
smoothSolver:  Solving for nuTilda, Initial residual = 0.00215243, Final residual = 5.23877e-05, No Iterations 4
ExecutionTime = 0.81 s  ClockTime = 1 s

Time = 45

smoothSolver:  Solving for Ux, Initial residual = 0.00768413, Final residual = 0.000612955, No Iterations 2
smoothSolver:  Solving for Uy, Initial residual = 0.00589219, Final residual = 0.000582766, No Iterations 2
GAMG:  Solving for p, Initial residual = 0.204647, Final residual = 0.0147628, No Iterations 3
time step continuity errors : sum local = 0.000149939, global = 2.63795e-16, cumulative = 4.46536e-15
smoothSolver:  Solving for nuTilda, Initial residual = 0.00212449, Final residual = 5.26359e-05, No Iterations 4
ExecutionTime = 0.83 s  ClockTime = 1 s

Time = 46

smoothSolver:  Solving for Ux, Initial residual = 0.007709, Final residual = 0.000611699, No Iterations 2
smoothSolver:  Solving for Uy, Initial residual = 0.00591527, Final residual = 0.000578791, No Iterations 2
GAMG:  Solving for p, Initial residual = 0.198779, Final residual = 0.0155462, No Iterations 3
time step continuity errors : sum local = 0.000156668, global = 4.00607e-16, cumulative = 4.86597e-15
smoothSolver:  Solving for nuTilda, Initial residual = 0.00209708, Final residual = 5.28968e-05, No Iterations 4
ExecutionTime = 0.84 s  ClockTime = 1 s

Time = 47

smoothSolver:  Solving for Ux, Initial residual = 0.00752627, Final residual = 0.000610625, No Iterations 2
smoothSolver:  Solving for Uy, Initial residual = 0.00629083, Final residual = 0.000610454, No Iterations 2
GAMG:  Solving for p, Initial residual = 0.189735, Final residual = 0.0132445, No Iterations 3
time step continuity errors : sum local = 0.000132735, global = -6.92578e-16, cumulative = 4.17339e-15
smoothSolver:  Solving for nuTilda, Initial residual = 0.00206926, Final residual = 5.31999e-05, No Iterations 4
ExecutionTime = 0.86 s  ClockTime = 1 s

Time = 48

smoothSolver:  Solving for Ux, Initial residual = 0.00724599, Final residual = 0.00060736, No Iterations 2
smoothSolver:  Solving for Uy, Initial residual = 0.00657457, Final residual = 0.000642062, No Iterations 2
GAMG:  Solving for p, Initial residual = 0.178281, Final residual = 0.00994611, No Iterations 3
time step continuity errors : sum local = 9.88359e-05, global = 5.26915e-16, cumulative = 4.7003e-15
smoothSolver:  Solving for nuTilda, Initial residual = 0.00204063, Final residual = 5.34802e-05, No Iterations 4
ExecutionTime = 0.87 s  ClockTime = 1 s

Time = 49

smoothSolver:  Solving for Ux, Initial residual = 0.00701146, Final residual = 0.000602632, No Iterations 2
smoothSolver:  Solving for Uy, Initial residual = 0.00655904, Final residual = 0.000646773, No Iterations 2
GAMG:  Solving for p, Initial residual = 0.170617, Final residual = 0.00999461, No Iterations 3
time step continuity errors : sum local = 9.83221e-05, global = -5.68377e-17, cumulative = 4.64347e-15
smoothSolver:  Solving for nuTilda, Initial residual = 0.00201147, Final residual = 5.37637e-05, No Iterations 4
ExecutionTime = 0.89 s  ClockTime = 1 s

Time = 50

smoothSolver:  Solving for Ux, Initial residual = 0.00686054, Final residual = 0.000592103, No Iterations 2
smoothSolver:  Solving for Uy, Initial residual = 0.00615164, Final residual = 0.000118636, No Iterations 4
GAMG:  Solving for p, Initial residual = 0.167264, Final residual = 0.0115272, No Iterations 4
time step continuity errors : sum local = 0.000112545, global = -4.52378e-16, cumulative = 4.19109e-15
smoothSolver:  Solving for nuTilda, Initial residual = 0.00198147, Final residual = 5.39921e-05, No Iterations 4
ExecutionTime = 0.94 s  ClockTime = 1 s

Time = 51

smoothSolver:  Solving for Ux, Initial residual = 0.0068538, Final residual = 0.000574167, No Iterations 2
smoothSolver:  Solving for Uy, Initial residual = 0.00521223, Final residual = 0.00051081, No Iterations 2
GAMG:  Solving for p, Initial residual = 0.157979, Final residual = 0.0110238, No Iterations 3
time step continuity errors : sum local = 0.000106989, global = 2.04814e-16, cumulative = 4.3959e-15
smoothSolver:  Solving for nuTilda, Initial residual = 0.00195088, Final residual = 5.42199e-05, No Iterations 4
ExecutionTime = 0.96 s  ClockTime = 1 s

Time = 52

smoothSolver:  Solving for Ux, Initial residual = 0.00681513, Final residual = 0.000557392, No Iterations 2
smoothSolver:  Solving for Uy, Initial residual = 0.00494559, Final residual = 0.000483937, No Iterations 2
GAMG:  Solving for p, Initial residual = 0.150113, Final residual = 0.00927982, No Iterations 3
time step continuity errors : sum local = 9.01742e-05, global = -1.65182e-16, cumulative = 4.23072e-15
smoothSolver:  Solving for nuTilda, Initial residual = 0.00191975, Final residual = 5.44748e-05, No Iterations 4
ExecutionTime = 0.98 s  ClockTime = 1 s

Time = 53

smoothSolver:  Solving for Ux, Initial residual = 0.00672897, Final residual = 0.000546871, No Iterations 2
smoothSolver:  Solving for Uy, Initial residual = 0.00495989, Final residual = 9.5437e-05, No Iterations 4
GAMG:  Solving for p, Initial residual = 0.142912, Final residual = 0.00835029, No Iterations 3
time step continuity errors : sum local = 8.11357e-05, global = 6.67212e-16, cumulative = 4.89793e-15
smoothSolver:  Solving for nuTilda, Initial residual = 0.00188842, Final residual = 5.4744e-05, No Iterations 4
ExecutionTime = 1 s  ClockTime = 1 s

Time = 54

smoothSolver:  Solving for Ux, Initial residual = 0.00660726, Final residual = 0.000541976, No Iterations 2
smoothSolver:  Solving for Uy, Initial residual = 0.00502208, Final residual = 9.78711e-05, No Iterations 4
GAMG:  Solving for p, Initial residual = 0.135097, Final residual = 0.00722832, No Iterations 3
time step continuity errors : sum local = 6.8546e-05, global = 7.46751e-16, cumulative = 5.64468e-15
smoothSolver:  Solving for nuTilda, Initial residual = 0.00185802, Final residual = 5.50453e-05, No Iterations 4
ExecutionTime = 1.02 s  ClockTime = 1 s

Time = 55

smoothSolver:  Solving for Ux, Initial residual = 0.00645392, Final residual = 0.000533933, No Iterations 2
smoothSolver:  Solving for Uy, Initial residual = 0.00502719, Final residual = 0.000497576, No Iterations 2
GAMG:  Solving for p, Initial residual = 0.127815, Final residual = 0.0080793, No Iterations 3
time step continuity errors : sum local = 7.66925e-05, global = 3.60084e-16, cumulative = 6.00477e-15
smoothSolver:  Solving for nuTilda, Initial residual = 0.00182881, Final residual = 5.53526e-05, No Iterations 4
ExecutionTime = 1.03 s  ClockTime = 1 s

Time = 56

smoothSolver:  Solving for Ux, Initial residual = 0.00627614, Final residual = 0.000527393, No Iterations 2
smoothSolver:  Solving for Uy, Initial residual = 0.00499282, Final residual = 9.73214e-05, No Iterations 4
GAMG:  Solving for p, Initial residual = 0.123607, Final residual = 0.00769447, No Iterations 3
time step continuity errors : sum local = 7.28396e-05, global = -8.63098e-18, cumulative = 5.99614e-15
smoothSolver:  Solving for nuTilda, Initial residual = 0.00180055, Final residual = 5.56475e-05, No Iterations 4
ExecutionTime = 1.05 s  ClockTime = 1 s

Time = 57

smoothSolver:  Solving for Ux, Initial residual = 0.00619513, Final residual = 0.000522153, No Iterations 2
smoothSolver:  Solving for Uy, Initial residual = 0.00481537, Final residual = 0.000474149, No Iterations 2
GAMG:  Solving for p, Initial residual = 0.116352, Final residual = 0.00678457, No Iterations 3
time step continuity errors : sum local = 6.43028e-05, global = 1.80713e-16, cumulative = 6.17685e-15
smoothSolver:  Solving for nuTilda, Initial residual = 0.00177278, Final residual = 5.59038e-05, No Iterations 4
ExecutionTime = 1.06 s  ClockTime = 1 s

Time = 58

smoothSolver:  Solving for Ux, Initial residual = 0.00611525, Final residual = 0.000512953, No Iterations 2
smoothSolver:  Solving for Uy, Initial residual = 0.00461694, Final residual = 0.000461079, No Iterations 2
GAMG:  Solving for p, Initial residual = 0.112147, Final residual = 0.00733712, No Iterations 3
time step continuity errors : sum local = 6.91685e-05, global = -7.16412e-16, cumulative = 5.46044e-15
smoothSolver:  Solving for nuTilda, Initial residual = 0.00174486, Final residual = 5.61199e-05, No Iterations 4
ExecutionTime = 1.07 s  ClockTime = 1 s

Time = 59

smoothSolver:  Solving for Ux, Initial residual = 0.00599889, Final residual = 0.000497817, No Iterations 2
smoothSolver:  Solving for Uy, Initial residual = 0.00442722, Final residual = 8.90832e-05, No Iterations 4
GAMG:  Solving for p, Initial residual = 0.108939, Final residual = 0.01073, No Iterations 3
time step continuity errors : sum local = 9.99413e-05, global = -5.776e-16, cumulative = 4.88284e-15
smoothSolver:  Solving for nuTilda, Initial residual = 0.00171734, Final residual = 5.63154e-05, No Iterations 4
ExecutionTime = 1.1 s  ClockTime = 1 s

Time = 60

smoothSolver:  Solving for Ux, Initial residual = 0.00594215, Final residual = 0.000485095, No Iterations 2
smoothSolver:  Solving for Uy, Initial residual = 0.00423448, Final residual = 8.31229e-05, No Iterations 4
GAMG:  Solving for p, Initial residual = 0.10304, Final residual = 0.00990167, No Iterations 3
time step continuity errors : sum local = 9.15846e-05, global = 6.49927e-16, cumulative = 5.53276e-15
smoothSolver:  Solving for nuTilda, Initial residual = 0.00169037, Final residual = 5.6492e-05, No Iterations 4
ExecutionTime = 1.12 s  ClockTime = 1 s

Time = 61

smoothSolver:  Solving for Ux, Initial residual = 0.00588561, Final residual = 0.000475487, No Iterations 2
smoothSolver:  Solving for Uy, Initial residual = 0.00405639, Final residual = 0.000401737, No Iterations 2
GAMG:  Solving for p, Initial residual = 0.0957857, Final residual = 0.0063422, No Iterations 3
time step continuity errors : sum local = 5.86212e-05, global = 2.51071e-17, cumulative = 5.55787e-15
smoothSolver:  Solving for nuTilda, Initial residual = 0.00166391, Final residual = 5.66586e-05, No Iterations 4
ExecutionTime = 1.14 s  ClockTime = 1 s

Time = 62

smoothSolver:  Solving for Ux, Initial residual = 0.00576009, Final residual = 0.000467223, No Iterations 2
smoothSolver:  Solving for Uy, Initial residual = 0.00395159, Final residual = 7.78317e-05, No Iterations 4
GAMG:  Solving for p, Initial residual = 0.091899, Final residual = 0.00520765, No Iterations 3
time step continuity errors : sum local = 4.82498e-05, global = -4.93805e-16, cumulative = 5.06407e-15
smoothSolver:  Solving for nuTilda, Initial residual = 0.00163762, Final residual = 5.68244e-05, No Iterations 4
ExecutionTime = 1.15 s  ClockTime = 1 s

Time = 63

smoothSolver:  Solving for Ux, Initial residual = 0.00562898, Final residual = 0.000459209, No Iterations 2
smoothSolver:  Solving for Uy, Initial residual = 0.0038809, Final residual = 7.69209e-05, No Iterations 4
GAMG:  Solving for p, Initial residual = 0.087206, Final residual = 0.00656449, No Iterations 3
time step continuity errors : sum local = 6.07069e-05, global = 2.91222e-16, cumulative = 5.35529e-15
smoothSolver:  Solving for nuTilda, Initial residual = 0.00161128, Final residual = 5.69542e-05, No Iterations 4
ExecutionTime = 1.17 s  ClockTime = 1 s

Time = 64

smoothSolver:  Solving for Ux, Initial residual = 0.00551661, Final residual = 0.000453305, No Iterations 2
smoothSolver:  Solving for Uy, Initial residual = 0.00386342, Final residual = 0.000384885, No Iterations 2
GAMG:  Solving for p, Initial residual = 0.082511, Final residual = 0.00681361, No Iterations 3
time step continuity errors : sum local = 6.29495e-05, global = -3.55237e-16, cumulative = 5.00005e-15
smoothSolver:  Solving for nuTilda, Initial residual = 0.00158532, Final residual = 5.70461e-05, No Iterations 4
ExecutionTime = 1.19 s  ClockTime = 1 s

Time = 65

smoothSolver:  Solving for Ux, Initial residual = 0.00539465, Final residual = 0.000445671, No Iterations 2
smoothSolver:  Solving for Uy, Initial residual = 0.00387183, Final residual = 7.57253e-05, No Iterations 4
GAMG:  Solving for p, Initial residual = 0.0804646, Final residual = 0.00525338, No Iterations 3
time step continuity errors : sum local = 4.87182e-05, global = 6.66372e-16, cumulative = 5.66642e-15
smoothSolver:  Solving for nuTilda, Initial residual = 0.00155927, Final residual = 5.7097e-05, No Iterations 4
ExecutionTime = 1.2 s  ClockTime = 1 s

Time = 66

smoothSolver:  Solving for Ux, Initial residual = 0.00530936, Final residual = 0.00043454, No Iterations 2
smoothSolver:  Solving for Uy, Initial residual = 0.00378048, Final residual = 7.27074e-05, No Iterations 4
GAMG:  Solving for p, Initial residual = 0.0766883, Final residual = 0.00561772, No Iterations 3
time step continuity errors : sum local = 5.18975e-05, global = -3.22538e-16, cumulative = 5.34389e-15
smoothSolver:  Solving for nuTilda, Initial residual = 0.00153354, Final residual = 5.71071e-05, No Iterations 4
ExecutionTime = 1.22 s  ClockTime = 1 s

Time = 67

smoothSolver:  Solving for Ux, Initial residual = 0.00523051, Final residual = 0.000421403, No Iterations 2
smoothSolver:  Solving for Uy, Initial residual = 0.00358702, Final residual = 0.000357108, No Iterations 2
GAMG:  Solving for p, Initial residual = 0.0721332, Final residual = 0.00692637, No Iterations 3
time step continuity errors : sum local = 6.33647e-05, global = -6.34767e-16, cumulative = 4.70912e-15
smoothSolver:  Solving for nuTilda, Initial residual = 0.00150736, Final residual = 5.70827e-05, No Iterations 4
ExecutionTime = 1.23 s  ClockTime = 1 s

Time = 68

smoothSolver:  Solving for Ux, Initial residual = 0.00510685, Final residual = 0.000409945, No Iterations 2
smoothSolver:  Solving for Uy, Initial residual = 0.00341699, Final residual = 6.8091e-05, No Iterations 4
GAMG:  Solving for p, Initial residual = 0.0690717, Final residual = 0.00574247, No Iterations 3
time step continuity errors : sum local = 5.1544e-05, global = 2.87034e-17, cumulative = 4.73782e-15
smoothSolver:  Solving for nuTilda, Initial residual = 0.00148112, Final residual = 5.70305e-05, No Iterations 4
ExecutionTime = 1.25 s  ClockTime = 1 s

Time = 69

smoothSolver:  Solving for Ux, Initial residual = 0.00500836, Final residual = 0.000400819, No Iterations 2
smoothSolver:  Solving for Uy, Initial residual = 0.00329021, Final residual = 6.50978e-05, No Iterations 4
GAMG:  Solving for p, Initial residual = 0.0651297, Final residual = 0.00606779, No Iterations 3
time step continuity errors : sum local = 5.43644e-05, global = 6.14418e-16, cumulative = 5.35224e-15
smoothSolver:  Solving for nuTilda, Initial residual = 0.00145491, Final residual = 5.69465e-05, No Iterations 4
ExecutionTime = 1.27 s  ClockTime = 1 s

Time = 70

smoothSolver:  Solving for Ux, Initial residual = 0.00494892, Final residual = 0.000394041, No Iterations 2
smoothSolver:  Solving for Uy, Initial residual = 0.00320698, Final residual = 6.12577e-05, No Iterations 4
GAMG:  Solving for p, Initial residual = 0.0611824, Final residual = 0.00434012, No Iterations 3
time step continuity errors : sum local = 3.86563e-05, global = -3.03882e-16, cumulative = 5.04836e-15
smoothSolver:  Solving for nuTilda, Initial residual = 0.00142887, Final residual = 5.68269e-05, No Iterations 4
ExecutionTime = 1.28 s  ClockTime = 1 s

Time = 71

smoothSolver:  Solving for Ux, Initial residual = 0.00488897, Final residual = 0.000388352, No Iterations 2
smoothSolver:  Solving for Uy, Initial residual = 0.00315519, Final residual = 0.000312029, No Iterations 2
GAMG:  Solving for p, Initial residual = 0.058587, Final residual = 0.00435966, No Iterations 3
time step continuity errors : sum local = 3.86929e-05, global = -3.10089e-16, cumulative = 4.73827e-15
smoothSolver:  Solving for nuTilda, Initial residual = 0.00140347, Final residual = 5.66875e-05, No Iterations 4
ExecutionTime = 1.3 s  ClockTime = 1 s

Time = 72

smoothSolver:  Solving for Ux, Initial residual = 0.00477013, Final residual = 0.000381675, No Iterations 2
smoothSolver:  Solving for Uy, Initial residual = 0.00314723, Final residual = 6.18061e-05, No Iterations 4
GAMG:  Solving for p, Initial residual = 0.056677, Final residual = 0.00496249, No Iterations 3
time step continuity errors : sum local = 4.40231e-05, global = 8.52446e-16, cumulative = 5.59072e-15
smoothSolver:  Solving for nuTilda, Initial residual = 0.00137798, Final residual = 5.65256e-05, No Iterations 4
ExecutionTime = 1.32 s  ClockTime = 1 s

Time = 73

smoothSolver:  Solving for Ux, Initial residual = 0.0046511, Final residual = 0.000371728, No Iterations 2
smoothSolver:  Solving for Uy, Initial residual = 0.00308844, Final residual = 6.05171e-05, No Iterations 4
GAMG:  Solving for p, Initial residual = 0.0541848, Final residual = 0.00414782, No Iterations 3
time step continuity errors : sum local = 3.68407e-05, global = 4.99034e-16, cumulative = 6.08975e-15
smoothSolver:  Solving for nuTilda, Initial residual = 0.001353, Final residual = 5.63308e-05, No Iterations 4
ExecutionTime = 1.33 s  ClockTime = 1 s

Time = 74

smoothSolver:  Solving for Ux, Initial residual = 0.00454009, Final residual = 0.000360079, No Iterations 2
smoothSolver:  Solving for Uy, Initial residual = 0.00299623, Final residual = 5.62042e-05, No Iterations 4
GAMG:  Solving for p, Initial residual = 0.0514319, Final residual = 0.00351813, No Iterations 3
time step continuity errors : sum local = 3.13028e-05, global = 4.24871e-16, cumulative = 6.51462e-15
smoothSolver:  Solving for nuTilda, Initial residual = 0.00132831, Final residual = 5.60979e-05, No Iterations 4
ExecutionTime = 1.35 s  ClockTime = 1 s

Time = 75

smoothSolver:  Solving for Ux, Initial residual = 0.00443725, Final residual = 0.000348567, No Iterations 2
smoothSolver:  Solving for Uy, Initial residual = 0.00291051, Final residual = 0.000283392, No Iterations 2
GAMG:  Solving for p, Initial residual = 0.0485258, Final residual = 0.0042714, No Iterations 3
time step continuity errors : sum local = 3.78281e-05, global = 7.50739e-16, cumulative = 7.26536e-15
smoothSolver:  Solving for nuTilda, Initial residual = 0.00130446, Final residual = 5.58344e-05, No Iterations 4
ExecutionTime = 1.37 s  ClockTime = 1 s

Time = 76

smoothSolver:  Solving for Ux, Initial residual = 0.00434912, Final residual = 0.000340935, No Iterations 2
smoothSolver:  Solving for Uy, Initial residual = 0.00284342, Final residual = 5.35481e-05, No Iterations 4
GAMG:  Solving for p, Initial residual = 0.0459811, Final residual = 0.00273948, No Iterations 4
time step continuity errors : sum local = 2.43343e-05, global = -8.02722e-16, cumulative = 6.46264e-15
smoothSolver:  Solving for nuTilda, Initial residual = 0.00128116, Final residual = 5.55522e-05, No Iterations 4
ExecutionTime = 1.38 s  ClockTime = 1 s

Time = 77

smoothSolver:  Solving for Ux, Initial residual = 0.00432366, Final residual = 0.000336794, No Iterations 2
smoothSolver:  Solving for Uy, Initial residual = 0.00273513, Final residual = 5.2582e-05, No Iterations 4
GAMG:  Solving for p, Initial residual = 0.0432123, Final residual = 0.00365981, No Iterations 3
time step continuity errors : sum local = 3.23792e-05, global = -2.35755e-16, cumulative = 6.22688e-15
smoothSolver:  Solving for nuTilda, Initial residual = 0.00125864, Final residual = 5.52578e-05, No Iterations 4
ExecutionTime = 1.4 s  ClockTime = 1 s

Time = 78

smoothSolver:  Solving for Ux, Initial residual = 0.00426418, Final residual = 0.000329989, No Iterations 2
smoothSolver:  Solving for Uy, Initial residual = 0.00262904, Final residual = 4.93572e-05, No Iterations 4
GAMG:  Solving for p, Initial residual = 0.0406368, Final residual = 0.00272158, No Iterations 3
time step continuity errors : sum local = 2.36815e-05, global = -1.01511e-15, cumulative = 5.21177e-15
smoothSolver:  Solving for nuTilda, Initial residual = 0.00123684, Final residual = 5.49453e-05, No Iterations 4
ExecutionTime = 1.42 s  ClockTime = 1 s

Time = 79

smoothSolver:  Solving for Ux, Initial residual = 0.00416802, Final residual = 0.000322684, No Iterations 2
smoothSolver:  Solving for Uy, Initial residual = 0.00255615, Final residual = 0.000251157, No Iterations 2
GAMG:  Solving for p, Initial residual = 0.0388312, Final residual = 0.00367211, No Iterations 3
time step continuity errors : sum local = 3.21615e-05, global = -5.42871e-16, cumulative = 4.6689e-15
smoothSolver:  Solving for nuTilda, Initial residual = 0.00121564, Final residual = 5.46116e-05, No Iterations 4
ExecutionTime = 1.43 s  ClockTime = 1 s

Time = 80

smoothSolver:  Solving for Ux, Initial residual = 0.00402683, Final residual = 0.00031541, No Iterations 2
smoothSolver:  Solving for Uy, Initial residual = 0.00255067, Final residual = 0.000254786, No Iterations 2
GAMG:  Solving for p, Initial residual = 0.0371696, Final residual = 0.00365486, No Iterations 3
time step continuity errors : sum local = 3.18914e-05, global = 5.24527e-16, cumulative = 5.19343e-15
smoothSolver:  Solving for nuTilda, Initial residual = 0.00119547, Final residual = 5.42703e-05, No Iterations 4
ExecutionTime = 1.45 s  ClockTime = 1 s

Time = 81

smoothSolver:  Solving for Ux, Initial residual = 0.00388233, Final residual = 0.000306999, No Iterations 2
smoothSolver:  Solving for Uy, Initial residual = 0.0025577, Final residual = 4.98009e-05, No Iterations 4
GAMG:  Solving for p, Initial residual = 0.035526, Final residual = 0.00255755, No Iterations 3
time step continuity errors : sum local = 2.23713e-05, global = 1.82369e-16, cumulative = 5.3758e-15
smoothSolver:  Solving for nuTilda, Initial residual = 0.00117612, Final residual = 5.3927e-05, No Iterations 4
ExecutionTime = 1.47 s  ClockTime = 1 s

Time = 82

smoothSolver:  Solving for Ux, Initial residual = 0.00378292, Final residual = 0.000298348, No Iterations 2
smoothSolver:  Solving for Uy, Initial residual = 0.00251321, Final residual = 4.67075e-05, No Iterations 4
GAMG:  Solving for p, Initial residual = 0.0342582, Final residual = 0.00279817, No Iterations 3
time step continuity errors : sum local = 2.44409e-05, global = -5.82422e-16, cumulative = 4.79338e-15
smoothSolver:  Solving for nuTilda, Initial residual = 0.0011571, Final residual = 5.35702e-05, No Iterations 4
ExecutionTime = 1.48 s  ClockTime = 1 s

Time = 83

smoothSolver:  Solving for Ux, Initial residual = 0.00373067, Final residual = 0.000291251, No Iterations 2
smoothSolver:  Solving for Uy, Initial residual = 0.00241438, Final residual = 0.000230711, No Iterations 2
GAMG:  Solving for p, Initial residual = 0.031857, Final residual = 0.0010569, No Iterations 4
time step continuity errors : sum local = 9.12922e-06, global = -4.13009e-16, cumulative = 4.38037e-15
smoothSolver:  Solving for nuTilda, Initial residual = 0.00113861, Final residual = 5.31901e-05, No Iterations 4
ExecutionTime = 1.5 s  ClockTime = 1 s

Time = 84

smoothSolver:  Solving for Ux, Initial residual = 0.00369564, Final residual = 0.000286281, No Iterations 2
smoothSolver:  Solving for Uy, Initial residual = 0.00230084, Final residual = 0.000222351, No Iterations 2
GAMG:  Solving for p, Initial residual = 0.0302377, Final residual = 0.00169773, No Iterations 4
time step continuity errors : sum local = 1.46622e-05, global = -3.68604e-16, cumulative = 4.01176e-15
smoothSolver:  Solving for nuTilda, Initial residual = 0.00112123, Final residual = 5.28028e-05, No Iterations 4
ExecutionTime = 1.52 s  ClockTime = 1 s

Time = 85

smoothSolver:  Solving for Ux, Initial residual = 0.00364104, Final residual = 0.000282862, No Iterations 2
smoothSolver:  Solving for Uy, Initial residual = 0.00224986, Final residual = 0.000224721, No Iterations 2
GAMG:  Solving for p, Initial residual = 0.0278674, Final residual = 0.00200135, No Iterations 3
time step continuity errors : sum local = 1.72065e-05, global = 6.47215e-16, cumulative = 4.65898e-15
smoothSolver:  Solving for nuTilda, Initial residual = 0.00110498, Final residual = 5.2414e-05, No Iterations 4
ExecutionTime = 1.53 s  ClockTime = 1 s

Time = 86

smoothSolver:  Solving for Ux, Initial residual = 0.00353614, Final residual = 0.000277654, No Iterations 2
smoothSolver:  Solving for Uy, Initial residual = 0.00224887, Final residual = 4.30646e-05, No Iterations 4
GAMG:  Solving for p, Initial residual = 0.0264447, Final residual = 0.00214497, No Iterations 3
time step continuity errors : sum local = 1.8493e-05, global = -7.09025e-17, cumulative = 4.58808e-15
smoothSolver:  Solving for nuTilda, Initial residual = 0.00108942, Final residual = 5.20324e-05, No Iterations 4
ExecutionTime = 1.55 s  ClockTime = 1 s

Time = 87

smoothSolver:  Solving for Ux, Initial residual = 0.00341431, Final residual = 0.000271118, No Iterations 2
smoothSolver:  Solving for Uy, Initial residual = 0.00220959, Final residual = 0.000213844, No Iterations 2
GAMG:  Solving for p, Initial residual = 0.0248059, Final residual = 0.00100287, No Iterations 4
time step continuity errors : sum local = 8.58005e-06, global = -6.2726e-16, cumulative = 3.96082e-15
smoothSolver:  Solving for nuTilda, Initial residual = 0.00107413, Final residual = 5.16341e-05, No Iterations 4
ExecutionTime = 1.57 s  ClockTime = 2 s

Time = 88

smoothSolver:  Solving for Ux, Initial residual = 0.00327665, Final residual = 0.000264821, No Iterations 2
smoothSolver:  Solving for Uy, Initial residual = 0.00215274, Final residual = 0.000205658, No Iterations 2
GAMG:  Solving for p, Initial residual = 0.0234498, Final residual = 0.00205895, No Iterations 3
time step continuity errors : sum local = 1.77035e-05, global = -7.35054e-16, cumulative = 3.22576e-15
smoothSolver:  Solving for nuTilda, Initial residual = 0.00105984, Final residual = 5.12399e-05, No Iterations 4
ExecutionTime = 1.58 s  ClockTime = 2 s

Time = 89

smoothSolver:  Solving for Ux, Initial residual = 0.00316573, Final residual = 0.000259229, No Iterations 2
smoothSolver:  Solving for Uy, Initial residual = 0.00209894, Final residual = 0.000204181, No Iterations 2
GAMG:  Solving for p, Initial residual = 0.022038, Final residual = 0.00143379, No Iterations 3
time step continuity errors : sum local = 1.23692e-05, global = -4.71396e-16, cumulative = 2.75437e-15
smoothSolver:  Solving for nuTilda, Initial residual = 0.00104654, Final residual = 5.08462e-05, No Iterations 4
ExecutionTime = 1.6 s  ClockTime = 2 s

Time = 90

smoothSolver:  Solving for Ux, Initial residual = 0.00308211, Final residual = 0.000253918, No Iterations 2
smoothSolver:  Solving for Uy, Initial residual = 0.00202978, Final residual = 0.000202904, No Iterations 2
GAMG:  Solving for p, Initial residual = 0.0208599, Final residual = 0.00163529, No Iterations 3
time step continuity errors : sum local = 1.4052e-05, global = -1.96874e-16, cumulative = 2.55749e-15
smoothSolver:  Solving for nuTilda, Initial residual = 0.0010333, Final residual = 5.04421e-05, No Iterations 4
ExecutionTime = 1.62 s  ClockTime = 2 s

Time = 91

smoothSolver:  Solving for Ux, Initial residual = 0.00302272, Final residual = 0.000249277, No Iterations 2
smoothSolver:  Solving for Uy, Initial residual = 0.00196635, Final residual = 3.6442e-05, No Iterations 4
GAMG:  Solving for p, Initial residual = 0.020791, Final residual = 0.00207764, No Iterations 3
time step continuity errors : sum local = 1.78895e-05, global = -4.87803e-16, cumulative = 2.06969e-15
smoothSolver:  Solving for nuTilda, Initial residual = 0.00102049, Final residual = 5.00354e-05, No Iterations 4
ExecutionTime = 1.64 s  ClockTime = 2 s

Time = 92

smoothSolver:  Solving for Ux, Initial residual = 0.00297578, Final residual = 0.000244996, No Iterations 2
smoothSolver:  Solving for Uy, Initial residual = 0.00191668, Final residual = 0.000180522, No Iterations 2
GAMG:  Solving for p, Initial residual = 0.01898, Final residual = 0.00178442, No Iterations 3
time step continuity errors : sum local = 1.54119e-05, global = -6.46759e-17, cumulative = 2.00501e-15
smoothSolver:  Solving for nuTilda, Initial residual = 0.00100821, Final residual = 4.96256e-05, No Iterations 4
ExecutionTime = 1.65 s  ClockTime = 2 s

Time = 93

smoothSolver:  Solving for Ux, Initial residual = 0.0029072, Final residual = 0.000240997, No Iterations 2
smoothSolver:  Solving for Uy, Initial residual = 0.00190908, Final residual = 0.000176241, No Iterations 2
GAMG:  Solving for p, Initial residual = 0.0177949, Final residual = 0.00127548, No Iterations 3
time step continuity errors : sum local = 1.08371e-05, global = -9.55777e-16, cumulative = 1.04924e-15
smoothSolver:  Solving for nuTilda, Initial residual = 0.000996943, Final residual = 4.92178e-05, No Iterations 4
ExecutionTime = 1.67 s  ClockTime = 2 s

Time = 94

smoothSolver:  Solving for Ux, Initial residual = 0.00280754, Final residual = 0.00023679, No Iterations 2
smoothSolver:  Solving for Uy, Initial residual = 0.00190396, Final residual = 0.000180169, No Iterations 2
GAMG:  Solving for p, Initial residual = 0.01653, Final residual = 0.0013269, No Iterations 3
time step continuity errors : sum local = 1.13894e-05, global = -1.26045e-15, cumulative = -2.11211e-16
smoothSolver:  Solving for nuTilda, Initial residual = 0.000985869, Final residual = 4.88025e-05, No Iterations 4
ExecutionTime = 1.69 s  ClockTime = 2 s

Time = 95

smoothSolver:  Solving for Ux, Initial residual = 0.00268723, Final residual = 0.00023197, No Iterations 2
smoothSolver:  Solving for Uy, Initial residual = 0.00186502, Final residual = 0.000182634, No Iterations 2
GAMG:  Solving for p, Initial residual = 0.0154874, Final residual = 0.000757773, No Iterations 4
time step continuity errors : sum local = 6.40962e-06, global = 4.69235e-16, cumulative = 2.58024e-16
smoothSolver:  Solving for nuTilda, Initial residual = 0.000975404, Final residual = 4.83919e-05, No Iterations 4
ExecutionTime = 1.7 s  ClockTime = 2 s

Time = 96

smoothSolver:  Solving for Ux, Initial residual = 0.00256361, Final residual = 0.000226722, No Iterations 2
smoothSolver:  Solving for Uy, Initial residual = 0.00177602, Final residual = 0.000177413, No Iterations 2
GAMG:  Solving for p, Initial residual = 0.0144839, Final residual = 0.0010634, No Iterations 4
time step continuity errors : sum local = 9.03207e-06, global = 4.72481e-16, cumulative = 7.30505e-16
smoothSolver:  Solving for nuTilda, Initial residual = 0.00096478, Final residual = 4.79851e-05, No Iterations 4
ExecutionTime = 1.72 s  ClockTime = 2 s

Time = 97

smoothSolver:  Solving for Ux, Initial residual = 0.00246805, Final residual = 0.000221714, No Iterations 2
smoothSolver:  Solving for Uy, Initial residual = 0.00167777, Final residual = 0.000165907, No Iterations 2
GAMG:  Solving for p, Initial residual = 0.0136811, Final residual = 0.000763758, No Iterations 4
time step continuity errors : sum local = 6.51936e-06, global = 6.6189e-16, cumulative = 1.3924e-15
smoothSolver:  Solving for nuTilda, Initial residual = 0.000954711, Final residual = 4.7579e-05, No Iterations 4
ExecutionTime = 1.74 s  ClockTime = 2 s

Time = 98

smoothSolver:  Solving for Ux, Initial residual = 0.0024027, Final residual = 0.000217453, No Iterations 2
smoothSolver:  Solving for Uy, Initial residual = 0.00162129, Final residual = 0.000156496, No Iterations 2
GAMG:  Solving for p, Initial residual = 0.0131223, Final residual = 0.00062289, No Iterations 4
time step continuity errors : sum local = 5.31545e-06, global = 1.07763e-16, cumulative = 1.50016e-15
smoothSolver:  Solving for nuTilda, Initial residual = 0.000944904, Final residual = 4.71736e-05, No Iterations 4
ExecutionTime = 1.76 s  ClockTime = 2 s

Time = 99

smoothSolver:  Solving for Ux, Initial residual = 0.00234928, Final residual = 0.000213707, No Iterations 2
smoothSolver:  Solving for Uy, Initial residual = 0.00161715, Final residual = 0.000153964, No Iterations 2
GAMG:  Solving for p, Initial residual = 0.0124475, Final residual = 0.000649099, No Iterations 4
time step continuity errors : sum local = 5.58954e-06, global = 6.19554e-16, cumulative = 2.11971e-15
smoothSolver:  Solving for nuTilda, Initial residual = 0.000935315, Final residual = 4.6762e-05, No Iterations 4
ExecutionTime = 1.78 s  ClockTime = 2 s

Time = 100

smoothSolver:  Solving for Ux, Initial residual = 0.00228877, Final residual = 0.000210051, No Iterations 2
smoothSolver:  Solving for Uy, Initial residual = 0.00163926, Final residual = 0.000156344, No Iterations 2
GAMG:  Solving for p, Initial residual = 0.0115427, Final residual = 0.000878121, No Iterations 3
time step continuity errors : sum local = 7.52025e-06, global = -2.76078e-16, cumulative = 1.84363e-15
smoothSolver:  Solving for nuTilda, Initial residual = 0.000925773, Final residual = 4.63541e-05, No Iterations 4
ExecutionTime = 1.82 s  ClockTime = 2 s

Time = 101

smoothSolver:  Solving for Ux, Initial residual = 0.0022066, Final residual = 0.000205949, No Iterations 2
smoothSolver:  Solving for Uy, Initial residual = 0.00163028, Final residual = 0.000156393, No Iterations 2
GAMG:  Solving for p, Initial residual = 0.0107248, Final residual = 0.000934572, No Iterations 3
time step continuity errors : sum local = 8.08193e-06, global = -3.72473e-16, cumulative = 1.47116e-15
smoothSolver:  Solving for nuTilda, Initial residual = 0.000916453, Final residual = 4.5942e-05, No Iterations 4
ExecutionTime = 1.84 s  ClockTime = 2 s

Time = 102

smoothSolver:  Solving for Ux, Initial residual = 0.00211565, Final residual = 0.000201838, No Iterations 2
smoothSolver:  Solving for Uy, Initial residual = 0.00158719, Final residual = 0.000152714, No Iterations 2
GAMG:  Solving for p, Initial residual = 0.01027, Final residual = 0.000638247, No Iterations 4
time step continuity errors : sum local = 5.39426e-06, global = -2.40761e-16, cumulative = 1.2304e-15
smoothSolver:  Solving for nuTilda, Initial residual = 0.000907469, Final residual = 4.55334e-05, No Iterations 4
ExecutionTime = 1.86 s  ClockTime = 2 s

Time = 103

smoothSolver:  Solving for Ux, Initial residual = 0.00202683, Final residual = 0.000198019, No Iterations 2
smoothSolver:  Solving for Uy, Initial residual = 0.00149529, Final residual = 0.000143634, No Iterations 2
GAMG:  Solving for p, Initial residual = 0.00965109, Final residual = 0.000663113, No Iterations 4
time step continuity errors : sum local = 5.58155e-06, global = -2.19588e-16, cumulative = 1.01081e-15
smoothSolver:  Solving for nuTilda, Initial residual = 0.000898768, Final residual = 4.51253e-05, No Iterations 4
ExecutionTime = 1.88 s  ClockTime = 2 s

Time = 104

smoothSolver:  Solving for Ux, Initial residual = 0.00195158, Final residual = 0.000194502, No Iterations 2
smoothSolver:  Solving for Uy, Initial residual = 0.00140265, Final residual = 0.000134205, No Iterations 2
GAMG:  Solving for p, Initial residual = 0.00892539, Final residual = 0.00073192, No Iterations 4
time step continuity errors : sum local = 6.16971e-06, global = 1.09671e-16, cumulative = 1.12048e-15
smoothSolver:  Solving for nuTilda, Initial residual = 0.000889927, Final residual = 4.47196e-05, No Iterations 4
ExecutionTime = 1.89 s  ClockTime = 2 s

Time = 105

smoothSolver:  Solving for Ux, Initial residual = 0.00188912, Final residual = 3.29595e-05, No Iterations 4
smoothSolver:  Solving for Uy, Initial residual = 0.0013414, Final residual = 0.000127892, No Iterations 2
GAMG:  Solving for p, Initial residual = 0.00861928, Final residual = 0.00086063, No Iterations 3
time step continuity errors : sum local = 7.23755e-06, global = 6.49236e-16, cumulative = 1.76972e-15
smoothSolver:  Solving for nuTilda, Initial residual = 0.00088101, Final residual = 4.43096e-05, No Iterations 4
ExecutionTime = 1.91 s  ClockTime = 2 s

Time = 106

smoothSolver:  Solving for Ux, Initial residual = 0.00182522, Final residual = 3.23218e-05, No Iterations 4
smoothSolver:  Solving for Uy, Initial residual = 0.00133901, Final residual = 0.000128004, No Iterations 2
GAMG:  Solving for p, Initial residual = 0.00826911, Final residual = 0.000534164, No Iterations 4
time step continuity errors : sum local = 4.47588e-06, global = 2.55089e-16, cumulative = 2.02481e-15
smoothSolver:  Solving for nuTilda, Initial residual = 0.000872145, Final residual = 4.39047e-05, No Iterations 4
ExecutionTime = 1.93 s  ClockTime = 2 s

Time = 107

smoothSolver:  Solving for Ux, Initial residual = 0.00177165, Final residual = 3.17859e-05, No Iterations 4
smoothSolver:  Solving for Uy, Initial residual = 0.00135941, Final residual = 0.000129422, No Iterations 2
GAMG:  Solving for p, Initial residual = 0.00774083, Final residual = 0.000687167, No Iterations 3
time step continuity errors : sum local = 5.79057e-06, global = 8.51474e-16, cumulative = 2.87628e-15
smoothSolver:  Solving for nuTilda, Initial residual = 0.000863671, Final residual = 4.35039e-05, No Iterations 4
ExecutionTime = 1.95 s  ClockTime = 2 s

Time = 108

smoothSolver:  Solving for Ux, Initial residual = 0.00170903, Final residual = 3.1295e-05, No Iterations 4
smoothSolver:  Solving for Uy, Initial residual = 0.00134326, Final residual = 0.000127288, No Iterations 2
GAMG:  Solving for p, Initial residual = 0.00731541, Final residual = 0.00047774, No Iterations 4
time step continuity errors : sum local = 4.03667e-06, global = 7.75711e-16, cumulative = 3.65199e-15
smoothSolver:  Solving for nuTilda, Initial residual = 0.000855229, Final residual = 4.31054e-05, No Iterations 4
ExecutionTime = 1.96 s  ClockTime = 2 s

Time = 109

smoothSolver:  Solving for Ux, Initial residual = 0.00164465, Final residual = 3.08824e-05, No Iterations 4
smoothSolver:  Solving for Uy, Initial residual = 0.0012882, Final residual = 0.000120905, No Iterations 2
GAMG:  Solving for p, Initial residual = 0.0069023, Final residual = 0.000647419, No Iterations 4
time step continuity errors : sum local = 5.53671e-06, global = -2.13806e-16, cumulative = 3.43819e-15
smoothSolver:  Solving for nuTilda, Initial residual = 0.000846763, Final residual = 4.26999e-05, No Iterations 4
ExecutionTime = 1.98 s  ClockTime = 2 s

Time = 110

smoothSolver:  Solving for Ux, Initial residual = 0.00158017, Final residual = 3.05119e-05, No Iterations 4
smoothSolver:  Solving for Uy, Initial residual = 0.00120522, Final residual = 0.000112418, No Iterations 2
GAMG:  Solving for p, Initial residual = 0.00652752, Final residual = 0.000463085, No Iterations 4
time step continuity errors : sum local = 3.88818e-06, global = 5.90765e-16, cumulative = 4.02895e-15
smoothSolver:  Solving for nuTilda, Initial residual = 0.000838003, Final residual = 4.22916e-05, No Iterations 4
ExecutionTime = 2 s  ClockTime = 2 s

Time = 111

smoothSolver:  Solving for Ux, Initial residual = 0.00151865, Final residual = 3.01424e-05, No Iterations 4
smoothSolver:  Solving for Uy, Initial residual = 0.00113073, Final residual = 0.000105276, No Iterations 2
GAMG:  Solving for p, Initial residual = 0.00603153, Final residual = 0.000388392, No Iterations 4
time step continuity errors : sum local = 3.26548e-06, global = -1.17204e-16, cumulative = 3.91175e-15
smoothSolver:  Solving for nuTilda, Initial residual = 0.000829516, Final residual = 4.18838e-05, No Iterations 4
ExecutionTime = 2.02 s  ClockTime = 2 s

Time = 112

smoothSolver:  Solving for Ux, Initial residual = 0.00146508, Final residual = 2.97489e-05, No Iterations 4
smoothSolver:  Solving for Uy, Initial residual = 0.00108108, Final residual = 0.00010079, No Iterations 2
GAMG:  Solving for p, Initial residual = 0.00566378, Final residual = 0.000377007, No Iterations 4
time step continuity errors : sum local = 3.18315e-06, global = 1.54547e-16, cumulative = 4.0663e-15
smoothSolver:  Solving for nuTilda, Initial residual = 0.000821214, Final residual = 4.14865e-05, No Iterations 4
ExecutionTime = 2.03 s  ClockTime = 2 s

Time = 113

smoothSolver:  Solving for Ux, Initial residual = 0.0014194, Final residual = 2.93479e-05, No Iterations 4
smoothSolver:  Solving for Uy, Initial residual = 0.00105238, Final residual = 9.78322e-05, No Iterations 2
GAMG:  Solving for p, Initial residual = 0.00546714, Final residual = 0.000324914, No Iterations 4
time step continuity errors : sum local = 2.76611e-06, global = -7.09919e-17, cumulative = 3.9953e-15
smoothSolver:  Solving for nuTilda, Initial residual = 0.000813037, Final residual = 4.1084e-05, No Iterations 4
ExecutionTime = 2.05 s  ClockTime = 2 s

Time = 114

smoothSolver:  Solving for Ux, Initial residual = 0.0013785, Final residual = 2.88922e-05, No Iterations 4
smoothSolver:  Solving for Uy, Initial residual = 0.00103379, Final residual = 9.54859e-05, No Iterations 2
GAMG:  Solving for p, Initial residual = 0.00521762, Final residual = 0.000305163, No Iterations 4
time step continuity errors : sum local = 2.56753e-06, global = -6.2086e-16, cumulative = 3.37444e-15
smoothSolver:  Solving for nuTilda, Initial residual = 0.000804529, Final residual = 4.06798e-05, No Iterations 4
ExecutionTime = 2.07 s  ClockTime = 2 s

Time = 115

smoothSolver:  Solving for Ux, Initial residual = 0.00133841, Final residual = 2.84561e-05, No Iterations 4
smoothSolver:  Solving for Uy, Initial residual = 0.00101241, Final residual = 9.2189e-05, No Iterations 2
GAMG:  Solving for p, Initial residual = 0.00477686, Final residual = 0.000242604, No Iterations 4
time step continuity errors : sum local = 2.03578e-06, global = -3.09219e-16, cumulative = 3.06523e-15
smoothSolver:  Solving for nuTilda, Initial residual = 0.000796201, Final residual = 4.02737e-05, No Iterations 4
ExecutionTime = 2.08 s  ClockTime = 2 s

Time = 116

smoothSolver:  Solving for Ux, Initial residual = 0.00129836, Final residual = 2.80417e-05, No Iterations 4
smoothSolver:  Solving for Uy, Initial residual = 0.000980393, Final residual = 8.81547e-05, No Iterations 2
GAMG:  Solving for p, Initial residual = 0.00456038, Final residual = 0.000396769, No Iterations 4
time step continuity errors : sum local = 3.33029e-06, global = -5.20294e-16, cumulative = 2.54493e-15
smoothSolver:  Solving for nuTilda, Initial residual = 0.000788061, Final residual = 3.9877e-05, No Iterations 4
ExecutionTime = 2.1 s  ClockTime = 2 s

Time = 117

smoothSolver:  Solving for Ux, Initial residual = 0.00126018, Final residual = 2.76489e-05, No Iterations 4
smoothSolver:  Solving for Uy, Initial residual = 0.000940568, Final residual = 8.33623e-05, No Iterations 2
GAMG:  Solving for p, Initial residual = 0.0043421, Final residual = 0.000425877, No Iterations 4
time step continuity errors : sum local = 3.62603e-06, global = 2.37544e-16, cumulative = 2.78248e-15
smoothSolver:  Solving for nuTilda, Initial residual = 0.000780185, Final residual = 3.94784e-05, No Iterations 4
ExecutionTime = 2.12 s  ClockTime = 2 s

Time = 118

smoothSolver:  Solving for Ux, Initial residual = 0.00122641, Final residual = 2.72555e-05, No Iterations 4
smoothSolver:  Solving for Uy, Initial residual = 0.000899878, Final residual = 7.88059e-05, No Iterations 2
GAMG:  Solving for p, Initial residual = 0.00416508, Final residual = 0.000385005, No Iterations 4
time step continuity errors : sum local = 3.2748e-06, global = 4.77447e-16, cumulative = 3.25992e-15
smoothSolver:  Solving for nuTilda, Initial residual = 0.000772086, Final residual = 3.90752e-05, No Iterations 4
ExecutionTime = 2.14 s  ClockTime = 2 s

Time = 119

smoothSolver:  Solving for Ux, Initial residual = 0.00119827, Final residual = 2.6882e-05, No Iterations 4
smoothSolver:  Solving for Uy, Initial residual = 0.000867337, Final residual = 7.49357e-05, No Iterations 2
GAMG:  Solving for p, Initial residual = 0.00389224, Final residual = 0.000293134, No Iterations 4
time step continuity errors : sum local = 2.49069e-06, global = 5.82209e-16, cumulative = 3.84213e-15
smoothSolver:  Solving for nuTilda, Initial residual = 0.000763961, Final residual = 3.86689e-05, No Iterations 4
ExecutionTime = 2.15 s  ClockTime = 2 s

Time = 120

smoothSolver:  Solving for Ux, Initial residual = 0.00117282, Final residual = 2.6518e-05, No Iterations 4
smoothSolver:  Solving for Uy, Initial residual = 0.00084465, Final residual = 7.18884e-05, No Iterations 2
GAMG:  Solving for p, Initial residual = 0.00370288, Final residual = 0.000269267, No Iterations 4
time step continuity errors : sum local = 2.27745e-06, global = -2.02265e-16, cumulative = 3.63987e-15
smoothSolver:  Solving for nuTilda, Initial residual = 0.000755865, Final residual = 3.82672e-05, No Iterations 4
ExecutionTime = 2.17 s  ClockTime = 2 s

Time = 121

smoothSolver:  Solving for Ux, Initial residual = 0.0011489, Final residual = 2.61484e-05, No Iterations 4
smoothSolver:  Solving for Uy, Initial residual = 0.000829821, Final residual = 6.92868e-05, No Iterations 2
GAMG:  Solving for p, Initial residual = 0.0034506, Final residual = 0.00016717, No Iterations 4
time step continuity errors : sum local = 1.4051e-06, global = 4.36818e-16, cumulative = 4.07669e-15
smoothSolver:  Solving for nuTilda, Initial residual = 0.00074819, Final residual = 3.78755e-05, No Iterations 4
ExecutionTime = 2.19 s  ClockTime = 2 s

Time = 122

smoothSolver:  Solving for Ux, Initial residual = 0.00112497, Final residual = 2.57695e-05, No Iterations 4
smoothSolver:  Solving for Uy, Initial residual = 0.000816677, Final residual = 6.68777e-05, No Iterations 2
GAMG:  Solving for p, Initial residual = 0.00324426, Final residual = 0.000214332, No Iterations 4
time step continuity errors : sum local = 1.80317e-06, global = -7.67772e-16, cumulative = 3.30891e-15
smoothSolver:  Solving for nuTilda, Initial residual = 0.000740442, Final residual = 3.74815e-05, No Iterations 4
ExecutionTime = 2.21 s  ClockTime = 2 s

Time = 123

smoothSolver:  Solving for Ux, Initial residual = 0.00110215, Final residual = 2.54094e-05, No Iterations 4
smoothSolver:  Solving for Uy, Initial residual = 0.000803814, Final residual = 6.44267e-05, No Iterations 2
GAMG:  Solving for p, Initial residual = 0.00302985, Final residual = 0.000209729, No Iterations 4
time step continuity errors : sum local = 1.78867e-06, global = -6.86137e-16, cumulative = 2.62278e-15
smoothSolver:  Solving for nuTilda, Initial residual = 0.00073264, Final residual = 3.70799e-05, No Iterations 4
ExecutionTime = 2.23 s  ClockTime = 2 s

Time = 124

smoothSolver:  Solving for Ux, Initial residual = 0.00108185, Final residual = 2.50694e-05, No Iterations 4
smoothSolver:  Solving for Uy, Initial residual = 0.000789526, Final residual = 6.18697e-05, No Iterations 2
GAMG:  Solving for p, Initial residual = 0.00296151, Final residual = 0.000207946, No Iterations 4
time step continuity errors : sum local = 1.74844e-06, global = 5.77252e-16, cumulative = 3.20003e-15
smoothSolver:  Solving for nuTilda, Initial residual = 0.000724765, Final residual = 3.66813e-05, No Iterations 4
ExecutionTime = 2.25 s  ClockTime = 2 s

Time = 125

smoothSolver:  Solving for Ux, Initial residual = 0.00106475, Final residual = 2.47537e-05, No Iterations 4
smoothSolver:  Solving for Uy, Initial residual = 0.000774669, Final residual = 5.93099e-05, No Iterations 2
GAMG:  Solving for p, Initial residual = 0.00281537, Final residual = 0.000190997, No Iterations 4
time step continuity errors : sum local = 1.60804e-06, global = -4.14655e-16, cumulative = 2.78537e-15
smoothSolver:  Solving for nuTilda, Initial residual = 0.000717135, Final residual = 3.62863e-05, No Iterations 4
ExecutionTime = 2.27 s  ClockTime = 2 s

Time = 126

smoothSolver:  Solving for Ux, Initial residual = 0.00104948, Final residual = 2.44471e-05, No Iterations 4
smoothSolver:  Solving for Uy, Initial residual = 0.000761619, Final residual = 5.70556e-05, No Iterations 2
GAMG:  Solving for p, Initial residual = 0.00271516, Final residual = 0.000202228, No Iterations 4
time step continuity errors : sum local = 1.69832e-06, global = -6.45516e-16, cumulative = 2.13986e-15
smoothSolver:  Solving for nuTilda, Initial residual = 0.000709668, Final residual = 3.59002e-05, No Iterations 4
ExecutionTime = 2.28 s  ClockTime = 2 s

Time = 127

smoothSolver:  Solving for Ux, Initial residual = 0.00103457, Final residual = 2.41546e-05, No Iterations 4
smoothSolver:  Solving for Uy, Initial residual = 0.000752538, Final residual = 5.52494e-05, No Iterations 2
GAMG:  Solving for p, Initial residual = 0.0025511, Final residual = 0.000151866, No Iterations 4
time step continuity errors : sum local = 1.27838e-06, global = 1.2394e-17, cumulative = 2.15225e-15
smoothSolver:  Solving for nuTilda, Initial residual = 0.000702158, Final residual = 3.55037e-05, No Iterations 4
ExecutionTime = 2.3 s  ClockTime = 2 s

Time = 128

smoothSolver:  Solving for Ux, Initial residual = 0.00101887, Final residual = 2.38653e-05, No Iterations 4
smoothSolver:  Solving for Uy, Initial residual = 0.000744836, Final residual = 5.38597e-05, No Iterations 2
GAMG:  Solving for p, Initial residual = 0.00242227, Final residual = 0.000165107, No Iterations 4
time step continuity errors : sum local = 1.39352e-06, global = -4.68897e-17, cumulative = 2.10536e-15
smoothSolver:  Solving for nuTilda, Initial residual = 0.000694417, Final residual = 3.51095e-05, No Iterations 4
ExecutionTime = 2.32 s  ClockTime = 2 s

Time = 129

smoothSolver:  Solving for Ux, Initial residual = 0.00100183, Final residual = 2.3589e-05, No Iterations 4
smoothSolver:  Solving for Uy, Initial residual = 0.000738114, Final residual = 5.26845e-05, No Iterations 2
GAMG:  Solving for p, Initial residual = 0.00227181, Final residual = 0.00011052, No Iterations 4
time step continuity errors : sum local = 9.28376e-07, global = -9.13121e-16, cumulative = 1.19224e-15
smoothSolver:  Solving for nuTilda, Initial residual = 0.000686828, Final residual = 3.47141e-05, No Iterations 4
ExecutionTime = 2.34 s  ClockTime = 2 s

Time = 130

smoothSolver:  Solving for Ux, Initial residual = 0.000984251, Final residual = 2.33201e-05, No Iterations 4
smoothSolver:  Solving for Uy, Initial residual = 0.000729733, Final residual = 5.16098e-05, No Iterations 2
GAMG:  Solving for p, Initial residual = 0.00218079, Final residual = 0.0001229, No Iterations 4
time step continuity errors : sum local = 1.03036e-06, global = 2.38553e-16, cumulative = 1.43079e-15
smoothSolver:  Solving for nuTilda, Initial residual = 0.000679382, Final residual = 3.43306e-05, No Iterations 4
ExecutionTime = 2.36 s  ClockTime = 2 s

Time = 131

smoothSolver:  Solving for Ux, Initial residual = 0.000966353, Final residual = 2.30724e-05, No Iterations 4
smoothSolver:  Solving for Uy, Initial residual = 0.000721025, Final residual = 5.05713e-05, No Iterations 2
GAMG:  Solving for p, Initial residual = 0.00207429, Final residual = 0.000104675, No Iterations 4
time step continuity errors : sum local = 8.82026e-07, global = 9.74991e-17, cumulative = 1.52829e-15
smoothSolver:  Solving for nuTilda, Initial residual = 0.000672181, Final residual = 3.39439e-05, No Iterations 4
ExecutionTime = 2.37 s  ClockTime = 2 s

Time = 132

smoothSolver:  Solving for Ux, Initial residual = 0.000949592, Final residual = 2.2834e-05, No Iterations 4
smoothSolver:  Solving for Uy, Initial residual = 0.000712465, Final residual = 4.98181e-05, No Iterations 2
GAMG:  Solving for p, Initial residual = 0.0020136, Final residual = 0.000114163, No Iterations 4
time step continuity errors : sum local = 9.6684e-07, global = -1.3277e-16, cumulative = 1.39552e-15
smoothSolver:  Solving for nuTilda, Initial residual = 0.000664778, Final residual = 3.3555e-05, No Iterations 4
ExecutionTime = 2.39 s  ClockTime = 2 s

Time = 133

smoothSolver:  Solving for Ux, Initial residual = 0.000933565, Final residual = 2.26061e-05, No Iterations 4
smoothSolver:  Solving for Uy, Initial residual = 0.000705924, Final residual = 4.91957e-05, No Iterations 2
GAMG:  Solving for p, Initial residual = 0.00191481, Final residual = 9.19453e-05, No Iterations 4
time step continuity errors : sum local = 7.7528e-07, global = 5.96853e-16, cumulative = 1.99237e-15
smoothSolver:  Solving for nuTilda, Initial residual = 0.000657383, Final residual = 3.31645e-05, No Iterations 4
ExecutionTime = 2.41 s  ClockTime = 2 s

Time = 134

smoothSolver:  Solving for Ux, Initial residual = 0.000917692, Final residual = 2.23797e-05, No Iterations 4
smoothSolver:  Solving for Uy, Initial residual = 0.000699845, Final residual = 4.87946e-05, No Iterations 2
[...]
smoothSolver:  Solving for Uy, Initial residual = 2.75447e-06, Final residual = 2.13581e-07, No Iterations 2
GAMG:  Solving for p, Initial residual = 0.000245756, Final residual = 9.67453e-06, No Iterations 2
time step continuity errors : sum local = 1.02596e-07, global = 2.574e-16, cumulative = -4.68916e-13
smoothSolver:  Solving for nuTilda, Initial residual = 1.83689e-07, Final residual = 4.45232e-09, No Iterations 2
ExecutionTime = 40.37 s  ClockTime = 40 s

Time = 2468

smoothSolver:  Solving for Ux, Initial residual = 7.45535e-07, Final residual = 5.58724e-08, No Iterations 2
smoothSolver:  Solving for Uy, Initial residual = 2.72567e-06, Final residual = 2.10986e-07, No Iterations 2
GAMG:  Solving for p, Initial residual = 0.000246593, Final residual = 9.68791e-06, No Iterations 2
time step continuity errors : sum local = 1.02805e-07, global = -8.50157e-16, cumulative = -4.69766e-13
smoothSolver:  Solving for nuTilda, Initial residual = 1.18806e-07, Final residual = 4.3838e-09, No Iterations 2
ExecutionTime = 40.38 s  ClockTime = 40 s

Time = 2469

smoothSolver:  Solving for Ux, Initial residual = 7.58079e-07, Final residual = 5.72857e-08, No Iterations 2
smoothSolver:  Solving for Uy, Initial residual = 2.75447e-06, Final residual = 2.13581e-07, No Iterations 2
GAMG:  Solving for p, Initial residual = 0.000245756, Final residual = 9.67453e-06, No Iterations 2
time step continuity errors : sum local = 1.02596e-07, global = 1.51006e-16, cumulative = -4.69615e-13
smoothSolver:  Solving for nuTilda, Initial residual = 1.83689e-07, Final residual = 4.45232e-09, No Iterations 2
ExecutionTime = 40.4 s  ClockTime = 40 s

Time = 2470

smoothSolver:  Solving for Ux, Initial residual = 7.45535e-07, Final residual = 5.58724e-08, No Iterations 2
smoothSolver:  Solving for Uy, Initial residual = 2.72567e-06, Final residual = 2.10986e-07, No Iterations 2
GAMG:  Solving for p, Initial residual = 0.000246593, Final residual = 9.68791e-06, No Iterations 2
time step continuity errors : sum local = 1.02805e-07, global = -6.03104e-16, cumulative = -4.70218e-13
smoothSolver:  Solving for nuTilda, Initial residual = 1.18806e-07, Final residual = 4.3838e-09, No Iterations 2
ExecutionTime = 40.42 s  ClockTime = 40 s

Time = 2471

smoothSolver:  Solving for Ux, Initial residual = 7.58079e-07, Final residual = 5.72857e-08, No Iterations 2
smoothSolver:  Solving for Uy, Initial residual = 2.75447e-06, Final residual = 2.13581e-07, No Iterations 2
GAMG:  Solving for p, Initial residual = 0.000245756, Final residual = 9.67453e-06, No Iterations 2
time step continuity errors : sum local = 1.02596e-07, global = 5.08522e-16, cumulative = -4.6971e-13
smoothSolver:  Solving for nuTilda, Initial residual = 1.83689e-07, Final residual = 4.45232e-09, No Iterations 2
ExecutionTime = 40.43 s  ClockTime = 40 s

Time = 2472

smoothSolver:  Solving for Ux, Initial residual = 7.45535e-07, Final residual = 5.58724e-08, No Iterations 2
smoothSolver:  Solving for Uy, Initial residual = 2.72567e-06, Final residual = 2.10986e-07, No Iterations 2
GAMG:  Solving for p, Initial residual = 0.000246593, Final residual = 9.68791e-06, No Iterations 2
time step continuity errors : sum local = 1.02805e-07, global = -9.89624e-16, cumulative = -4.707e-13
smoothSolver:  Solving for nuTilda, Initial residual = 1.18806e-07, Final residual = 4.3838e-09, No Iterations 2
ExecutionTime = 40.44 s  ClockTime = 40 s

Time = 2473

smoothSolver:  Solving for Ux, Initial residual = 7.58079e-07, Final residual = 5.72857e-08, No Iterations 2
smoothSolver:  Solving for Uy, Initial residual = 2.75447e-06, Final residual = 2.13581e-07, No Iterations 2
GAMG:  Solving for p, Initial residual = 0.000245756, Final residual = 9.67453e-06, No Iterations 2
time step continuity errors : sum local = 1.02596e-07, global = 2.94732e-16, cumulative = -4.70405e-13
smoothSolver:  Solving for nuTilda, Initial residual = 1.83689e-07, Final residual = 4.45232e-09, No Iterations 2
ExecutionTime = 40.45 s  ClockTime = 40 s

Time = 2474

smoothSolver:  Solving for Ux, Initial residual = 7.45535e-07, Final residual = 5.58724e-08, No Iterations 2
smoothSolver:  Solving for Uy, Initial residual = 2.72567e-06, Final residual = 2.10986e-07, No Iterations 2
GAMG:  Solving for p, Initial residual = 0.000246593, Final residual = 9.68791e-06, No Iterations 2
time step continuity errors : sum local = 1.02805e-07, global = -1.04744e-15, cumulative = -4.71452e-13
smoothSolver:  Solving for nuTilda, Initial residual = 1.18806e-07, Final residual = 4.3838e-09, No Iterations 2
ExecutionTime = 40.47 s  ClockTime = 40 s

Time = 2475

smoothSolver:  Solving for Ux, Initial residual = 7.58079e-07, Final residual = 5.72857e-08, No Iterations 2
smoothSolver:  Solving for Uy, Initial residual = 2.75447e-06, Final residual = 2.13581e-07, No Iterations 2
GAMG:  Solving for p, Initial residual = 0.000245756, Final residual = 9.67453e-06, No Iterations 2
time step continuity errors : sum local = 1.02596e-07, global = 1.19663e-16, cumulative = -4.71333e-13
smoothSolver:  Solving for nuTilda, Initial residual = 1.83689e-07, Final residual = 4.45232e-09, No Iterations 2
ExecutionTime = 40.49 s  ClockTime = 40 s

Time = 2476

smoothSolver:  Solving for Ux, Initial residual = 7.45535e-07, Final residual = 5.58724e-08, No Iterations 2
smoothSolver:  Solving for Uy, Initial residual = 2.72567e-06, Final residual = 2.10986e-07, No Iterations 2
GAMG:  Solving for p, Initial residual = 0.000246593, Final residual = 9.68791e-06, No Iterations 2
time step continuity errors : sum local = 1.02805e-07, global = -9.39597e-16, cumulative = -4.72272e-13
smoothSolver:  Solving for nuTilda, Initial residual = 1.18806e-07, Final residual = 4.3838e-09, No Iterations 2
ExecutionTime = 40.5 s  ClockTime = 40 s

Time = 2477

smoothSolver:  Solving for Ux, Initial residual = 7.58079e-07, Final residual = 5.72857e-08, No Iterations 2
smoothSolver:  Solving for Uy, Initial residual = 2.75447e-06, Final residual = 2.13581e-07, No Iterations 2
GAMG:  Solving for p, Initial residual = 0.000245756, Final residual = 9.67453e-06, No Iterations 2
time step continuity errors : sum local = 1.02596e-07, global = 1.02922e-16, cumulative = -4.72169e-13
smoothSolver:  Solving for nuTilda, Initial residual = 1.83689e-07, Final residual = 4.45232e-09, No Iterations 2
ExecutionTime = 40.52 s  ClockTime = 40 s

Time = 2478

smoothSolver:  Solving for Ux, Initial residual = 7.45535e-07, Final residual = 5.58724e-08, No Iterations 2
smoothSolver:  Solving for Uy, Initial residual = 2.72567e-06, Final residual = 2.10986e-07, No Iterations 2
GAMG:  Solving for p, Initial residual = 0.000246593, Final residual = 9.68791e-06, No Iterations 2
time step continuity errors : sum local = 1.02805e-07, global = -7.75241e-16, cumulative = -4.72945e-13
smoothSolver:  Solving for nuTilda, Initial residual = 1.18806e-07, Final residual = 4.3838e-09, No Iterations 2
ExecutionTime = 40.53 s  ClockTime = 40 s

Time = 2479

smoothSolver:  Solving for Ux, Initial residual = 7.58079e-07, Final residual = 5.72857e-08, No Iterations 2
smoothSolver:  Solving for Uy, Initial residual = 2.75447e-06, Final residual = 2.13581e-07, No Iterations 2
GAMG:  Solving for p, Initial residual = 0.000245756, Final residual = 9.67453e-06, No Iterations 2
time step continuity errors : sum local = 1.02596e-07, global = 1.11802e-16, cumulative = -4.72833e-13
smoothSolver:  Solving for nuTilda, Initial residual = 1.83689e-07, Final residual = 4.45232e-09, No Iterations 2
ExecutionTime = 40.55 s  ClockTime = 40 s

Time = 2480

smoothSolver:  Solving for Ux, Initial residual = 7.45535e-07, Final residual = 5.58724e-08, No Iterations 2
smoothSolver:  Solving for Uy, Initial residual = 2.72567e-06, Final residual = 2.10986e-07, No Iterations 2
GAMG:  Solving for p, Initial residual = 0.000246593, Final residual = 9.68791e-06, No Iterations 2
time step continuity errors : sum local = 1.02805e-07, global = -1.13471e-15, cumulative = -4.73967e-13
smoothSolver:  Solving for nuTilda, Initial residual = 1.18806e-07, Final residual = 4.3838e-09, No Iterations 2
ExecutionTime = 40.57 s  ClockTime = 40 s

Time = 2481

smoothSolver:  Solving for Ux, Initial residual = 7.58079e-07, Final residual = 5.72857e-08, No Iterations 2
smoothSolver:  Solving for Uy, Initial residual = 2.75447e-06, Final residual = 2.13581e-07, No Iterations 2
GAMG:  Solving for p, Initial residual = 0.000245756, Final residual = 9.67453e-06, No Iterations 2
time step continuity errors : sum local = 1.02596e-07, global = 3.63774e-16, cumulative = -4.73604e-13
smoothSolver:  Solving for nuTilda, Initial residual = 1.83689e-07, Final residual = 4.45232e-09, No Iterations 2
ExecutionTime = 40.58 s  ClockTime = 41 s

Time = 2482

smoothSolver:  Solving for Ux, Initial residual = 7.45535e-07, Final residual = 5.58724e-08, No Iterations 2
smoothSolver:  Solving for Uy, Initial residual = 2.72567e-06, Final residual = 2.10986e-07, No Iterations 2
GAMG:  Solving for p, Initial residual = 0.000246593, Final residual = 9.68791e-06, No Iterations 2
time step continuity errors : sum local = 1.02805e-07, global = -1.07145e-15, cumulative = -4.74675e-13
smoothSolver:  Solving for nuTilda, Initial residual = 1.18806e-07, Final residual = 4.3838e-09, No Iterations 2
ExecutionTime = 40.6 s  ClockTime = 41 s

Time = 2483

smoothSolver:  Solving for Ux, Initial residual = 7.58079e-07, Final residual = 5.72857e-08, No Iterations 2
smoothSolver:  Solving for Uy, Initial residual = 2.75447e-06, Final residual = 2.13581e-07, No Iterations 2
GAMG:  Solving for p, Initial residual = 0.000245756, Final residual = 9.67453e-06, No Iterations 2
time step continuity errors : sum local = 1.02596e-07, global = 1.60263e-16, cumulative = -4.74515e-13
smoothSolver:  Solving for nuTilda, Initial residual = 1.83689e-07, Final residual = 4.45232e-09, No Iterations 2
ExecutionTime = 40.61 s  ClockTime = 41 s

Time = 2484

smoothSolver:  Solving for Ux, Initial residual = 7.45535e-07, Final residual = 5.58724e-08, No Iterations 2
smoothSolver:  Solving for Uy, Initial residual = 2.72567e-06, Final residual = 2.10986e-07, No Iterations 2
GAMG:  Solving for p, Initial residual = 0.000246593, Final residual = 9.68791e-06, No Iterations 2
time step continuity errors : sum local = 1.02805e-07, global = -1.04872e-15, cumulative = -4.75564e-13
smoothSolver:  Solving for nuTilda, Initial residual = 1.18806e-07, Final residual = 4.3838e-09, No Iterations 2
ExecutionTime = 40.63 s  ClockTime = 41 s

Time = 2485

smoothSolver:  Solving for Ux, Initial residual = 7.58079e-07, Final residual = 5.72857e-08, No Iterations 2
smoothSolver:  Solving for Uy, Initial residual = 2.75447e-06, Final residual = 2.13581e-07, No Iterations 2
GAMG:  Solving for p, Initial residual = 0.000245756, Final residual = 9.67453e-06, No Iterations 2
time step continuity errors : sum local = 1.02596e-07, global = 2.44504e-16, cumulative = -4.75319e-13
smoothSolver:  Solving for nuTilda, Initial residual = 1.83689e-07, Final residual = 4.45232e-09, No Iterations 2
ExecutionTime = 40.64 s  ClockTime = 41 s

Time = 2486

smoothSolver:  Solving for Ux, Initial residual = 7.45535e-07, Final residual = 5.58724e-08, No Iterations 2
smoothSolver:  Solving for Uy, Initial residual = 2.72567e-06, Final residual = 2.10986e-07, No Iterations 2
GAMG:  Solving for p, Initial residual = 0.000246593, Final residual = 9.68791e-06, No Iterations 2
time step continuity errors : sum local = 1.02805e-07, global = -1.00417e-15, cumulative = -4.76323e-13
smoothSolver:  Solving for nuTilda, Initial residual = 1.18806e-07, Final residual = 4.3838e-09, No Iterations 2
ExecutionTime = 40.66 s  ClockTime = 41 s

Time = 2487

smoothSolver:  Solving for Ux, Initial residual = 7.58079e-07, Final residual = 5.72857e-08, No Iterations 2
smoothSolver:  Solving for Uy, Initial residual = 2.75447e-06, Final residual = 2.13581e-07, No Iterations 2
GAMG:  Solving for p, Initial residual = 0.000245756, Final residual = 9.67453e-06, No Iterations 2
time step continuity errors : sum local = 1.02596e-07, global = 2.06729e-16, cumulative = -4.76116e-13
smoothSolver:  Solving for nuTilda, Initial residual = 1.83689e-07, Final residual = 4.45232e-09, No Iterations 2
ExecutionTime = 40.67 s  ClockTime = 41 s

Time = 2488

smoothSolver:  Solving for Ux, Initial residual = 7.45535e-07, Final residual = 5.58724e-08, No Iterations 2
smoothSolver:  Solving for Uy, Initial residual = 2.72567e-06, Final residual = 2.10986e-07, No Iterations 2
GAMG:  Solving for p, Initial residual = 0.000246593, Final residual = 9.68791e-06, No Iterations 2
time step continuity errors : sum local = 1.02805e-07, global = -1.08158e-15, cumulative = -4.77198e-13
smoothSolver:  Solving for nuTilda, Initial residual = 1.18806e-07, Final residual = 4.3838e-09, No Iterations 2
ExecutionTime = 40.68 s  ClockTime = 41 s

Time = 2489

smoothSolver:  Solving for Ux, Initial residual = 7.58079e-07, Final residual = 5.72857e-08, No Iterations 2
smoothSolver:  Solving for Uy, Initial residual = 2.75447e-06, Final residual = 2.13581e-07, No Iterations 2
GAMG:  Solving for p, Initial residual = 0.000245756, Final residual = 9.67453e-06, No Iterations 2
time step continuity errors : sum local = 1.02596e-07, global = 6.71707e-17, cumulative = -4.77131e-13
smoothSolver:  Solving for nuTilda, Initial residual = 1.83689e-07, Final residual = 4.45232e-09, No Iterations 2
ExecutionTime = 40.7 s  ClockTime = 41 s

Time = 2490

smoothSolver:  Solving for Ux, Initial residual = 7.45535e-07, Final residual = 5.58724e-08, No Iterations 2
smoothSolver:  Solving for Uy, Initial residual = 2.72567e-06, Final residual = 2.10986e-07, No Iterations 2
GAMG:  Solving for p, Initial residual = 0.000246593, Final residual = 9.68791e-06, No Iterations 2
time step continuity errors : sum local = 1.02805e-07, global = -8.84269e-16, cumulative = -4.78015e-13
smoothSolver:  Solving for nuTilda, Initial residual = 1.18806e-07, Final residual = 4.3838e-09, No Iterations 2
ExecutionTime = 40.71 s  ClockTime = 41 s

Time = 2491

smoothSolver:  Solving for Ux, Initial residual = 7.58079e-07, Final residual = 5.72857e-08, No Iterations 2
smoothSolver:  Solving for Uy, Initial residual = 2.75447e-06, Final residual = 2.13581e-07, No Iterations 2
GAMG:  Solving for p, Initial residual = 0.000245756, Final residual = 9.67453e-06, No Iterations 2
time step continuity errors : sum local = 1.02596e-07, global = 1.33095e-16, cumulative = -4.77882e-13
smoothSolver:  Solving for nuTilda, Initial residual = 1.83689e-07, Final residual = 4.45232e-09, No Iterations 2
ExecutionTime = 40.73 s  ClockTime = 41 s

Time = 2492

smoothSolver:  Solving for Ux, Initial residual = 7.45535e-07, Final residual = 5.58724e-08, No Iterations 2
smoothSolver:  Solving for Uy, Initial residual = 2.72567e-06, Final residual = 2.10986e-07, No Iterations 2
GAMG:  Solving for p, Initial residual = 0.000246593, Final residual = 9.68791e-06, No Iterations 2
time step continuity errors : sum local = 1.02805e-07, global = -9.08667e-16, cumulative = -4.78791e-13
smoothSolver:  Solving for nuTilda, Initial residual = 1.18806e-07, Final residual = 4.3838e-09, No Iterations 2
ExecutionTime = 40.75 s  ClockTime = 41 s

Time = 2493

smoothSolver:  Solving for Ux, Initial residual = 7.58079e-07, Final residual = 5.72857e-08, No Iterations 2
smoothSolver:  Solving for Uy, Initial residual = 2.75447e-06, Final residual = 2.13581e-07, No Iterations 2
GAMG:  Solving for p, Initial residual = 0.000245756, Final residual = 9.67453e-06, No Iterations 2
time step continuity errors : sum local = 1.02596e-07, global = 3.49111e-17, cumulative = -4.78756e-13
smoothSolver:  Solving for nuTilda, Initial residual = 1.83689e-07, Final residual = 4.45232e-09, No Iterations 2
ExecutionTime = 40.77 s  ClockTime = 41 s

Time = 2494

smoothSolver:  Solving for Ux, Initial residual = 7.45535e-07, Final residual = 5.58724e-08, No Iterations 2
smoothSolver:  Solving for Uy, Initial residual = 2.72567e-06, Final residual = 2.10986e-07, No Iterations 2
GAMG:  Solving for p, Initial residual = 0.000246593, Final residual = 9.68791e-06, No Iterations 2
time step continuity errors : sum local = 1.02805e-07, global = -1.09413e-15, cumulative = -4.7985e-13
smoothSolver:  Solving for nuTilda, Initial residual = 1.18806e-07, Final residual = 4.3838e-09, No Iterations 2
ExecutionTime = 40.78 s  ClockTime = 41 s

Time = 2495

smoothSolver:  Solving for Ux, Initial residual = 7.58079e-07, Final residual = 5.72857e-08, No Iterations 2
smoothSolver:  Solving for Uy, Initial residual = 2.75447e-06, Final residual = 2.13581e-07, No Iterations 2
GAMG:  Solving for p, Initial residual = 0.000245756, Final residual = 9.67453e-06, No Iterations 2
time step continuity errors : sum local = 1.02596e-07, global = 8.82643e-17, cumulative = -4.79762e-13
smoothSolver:  Solving for nuTilda, Initial residual = 1.83689e-07, Final residual = 4.45232e-09, No Iterations 2
ExecutionTime = 40.8 s  ClockTime = 41 s

Time = 2496

smoothSolver:  Solving for Ux, Initial residual = 7.45535e-07, Final residual = 5.58724e-08, No Iterations 2
smoothSolver:  Solving for Uy, Initial residual = 2.72567e-06, Final residual = 2.10986e-07, No Iterations 2
GAMG:  Solving for p, Initial residual = 0.000246593, Final residual = 9.68791e-06, No Iterations 2
time step continuity errors : sum local = 1.02805e-07, global = -1.00514e-15, cumulative = -4.80767e-13
smoothSolver:  Solving for nuTilda, Initial residual = 1.18806e-07, Final residual = 4.3838e-09, No Iterations 2
ExecutionTime = 40.81 s  ClockTime = 41 s

Time = 2497

smoothSolver:  Solving for Ux, Initial residual = 7.58079e-07, Final residual = 5.72857e-08, No Iterations 2
smoothSolver:  Solving for Uy, Initial residual = 2.75447e-06, Final residual = 2.13581e-07, No Iterations 2
GAMG:  Solving for p, Initial residual = 0.000245756, Final residual = 9.67453e-06, No Iterations 2
time step continuity errors : sum local = 1.02596e-07, global = 4.64449e-16, cumulative = -4.80302e-13
smoothSolver:  Solving for nuTilda, Initial residual = 1.83689e-07, Final residual = 4.45232e-09, No Iterations 2
ExecutionTime = 40.83 s  ClockTime = 41 s

Time = 2498

smoothSolver:  Solving for Ux, Initial residual = 7.45535e-07, Final residual = 5.58724e-08, No Iterations 2
smoothSolver:  Solving for Uy, Initial residual = 2.72567e-06, Final residual = 2.10986e-07, No Iterations 2
GAMG:  Solving for p, Initial residual = 0.000246593, Final residual = 9.68791e-06, No Iterations 2
time step continuity errors : sum local = 1.02805e-07, global = -1.10746e-15, cumulative = -4.8141e-13
smoothSolver:  Solving for nuTilda, Initial residual = 1.18806e-07, Final residual = 4.3838e-09, No Iterations 2
ExecutionTime = 40.84 s  ClockTime = 41 s

Time = 2499

smoothSolver:  Solving for Ux, Initial residual = 7.58079e-07, Final residual = 5.72857e-08, No Iterations 2
smoothSolver:  Solving for Uy, Initial residual = 2.75447e-06, Final residual = 2.13581e-07, No Iterations 2
GAMG:  Solving for p, Initial residual = 0.000245756, Final residual = 9.67453e-06, No Iterations 2
time step continuity errors : sum local = 1.02596e-07, global = 1.04214e-16, cumulative = -4.81306e-13
smoothSolver:  Solving for nuTilda, Initial residual = 1.83689e-07, Final residual = 4.45232e-09, No Iterations 2
ExecutionTime = 40.86 s  ClockTime = 41 s

Time = 2500

smoothSolver:  Solving for Ux, Initial residual = 7.45535e-07, Final residual = 5.58724e-08, No Iterations 2
smoothSolver:  Solving for Uy, Initial residual = 2.72567e-06, Final residual = 2.10986e-07, No Iterations 2
GAMG:  Solving for p, Initial residual = 0.000246593, Final residual = 9.68791e-06, No Iterations 2
time step continuity errors : sum local = 1.02805e-07, global = -9.7152e-16, cumulative = -4.82277e-13
smoothSolver:  Solving for nuTilda, Initial residual = 1.18806e-07, Final residual = 4.3838e-09, No Iterations 2
ExecutionTime = 40.9 s  ClockTime = 41 s

End

