/*---------------------------------------------------------------------------*\
| =========                 |                                                 |
| \\      /  F ield         | OpenFOAM: The Open Source CFD Toolbox           |
|  \\    /   O peration     | Version:  5.x                                   |
|   \\  /    A nd           | Web:      www.OpenFOAM.org                      |
|    \\/     M anipulation  |                                                 |
\*---------------------------------------------------------------------------*/
Build  : 5.x-68e8507efb72
Exec   : simpleFoam
Date   : Jan 30 2022
Time   : 20:54:59
Host   : "Desktop-PC"
PID    : 9478
I/O    : uncollated
Case   : /home/emilio/code/flow-separation-prediction/openfoam/run/Airfold2D_full
nProcs : 1
sigFpe : Enabling floating point exception trapping (FOAM_SIGFPE).
fileModificationChecking : Monitoring run-time modified files using timeStampMaster (fileModificationSkew 10)
allowSystemOperations : Allowing user-supplied system call operations

// * * * * * * * * * * * * * * * * * * * * * * * * * * * * * * * * * * * * * //
Create time

Create mesh for time = 0


SIMPLE: convergence criteria
    field p	 tolerance 1e-05
    field U	 tolerance 1e-05
    field nuTilda	 tolerance 1e-05

Reading field p

Reading field U

Reading/calculating face flux field phi

Selecting incompressible transport model Newtonian
Selecting turbulence model type RAS
Selecting RAS turbulence model SpalartAllmaras
Selecting patchDistMethod meshWave
RAS
{
    RASModel        SpalartAllmaras;
    turbulence      on;
    printCoeffs     on;
    sigmaNut        0.66666;
    kappa           0.41;
    Cb1             0.1355;
    Cb2             0.622;
    Cw2             0.3;
    Cw3             2;
    Cv1             7.1;
    Cs              0.3;
}

No MRF models present

No finite volume options present


Starting time loop

Time = 1

smoothSolver:  Solving for Ux, Initial residual = 1, Final residual = 0.0423739, No Iterations 2
smoothSolver:  Solving for Uy, Initial residual = 1, Final residual = 0.0705137, No Iterations 2
GAMG:  Solving for p, Initial residual = 1, Final residual = 0.0678982, No Iterations 8
time step continuity errors : sum local = 0.000954657, global = 5.22785e-16, cumulative = 5.22785e-16
smoothSolver:  Solving for nuTilda, Initial residual = 1, Final residual = 0.0181188, No Iterations 2
ExecutionTime = 0.09 s  ClockTime = 0 s

Time = 2

smoothSolver:  Solving for Ux, Initial residual = 0.538047, Final residual = 0.0135158, No Iterations 4
smoothSolver:  Solving for Uy, Initial residual = 0.449907, Final residual = 0.0168029, No Iterations 4
GAMG:  Solving for p, Initial residual = 0.850075, Final residual = 0.072524, No Iterations 3
time step continuity errors : sum local = 0.00282173, global = 2.40546e-16, cumulative = 7.63331e-16
smoothSolver:  Solving for nuTilda, Initial residual = 0.123395, Final residual = 0.00673998, No Iterations 2
ExecutionTime = 0.11 s  ClockTime = 0 s

Time = 3

smoothSolver:  Solving for Ux, Initial residual = 0.170418, Final residual = 0.00316945, No Iterations 4
smoothSolver:  Solving for Uy, Initial residual = 0.104766, Final residual = 0.00312573, No Iterations 4
GAMG:  Solving for p, Initial residual = 0.870019, Final residual = 0.0798245, No Iterations 4
time step continuity errors : sum local = 0.00532515, global = -4.1868e-16, cumulative = 3.44651e-16
smoothSolver:  Solving for nuTilda, Initial residual = 0.0397664, Final residual = 0.000664124, No Iterations 4
ExecutionTime = 0.13 s  ClockTime = 0 s

Time = 4

smoothSolver:  Solving for Ux, Initial residual = 0.047827, Final residual = 0.000866675, No Iterations 4
smoothSolver:  Solving for Uy, Initial residual = 0.0296357, Final residual = 0.000833724, No Iterations 4
GAMG:  Solving for p, Initial residual = 0.88059, Final residual = 0.0722865, No Iterations 4
time step continuity errors : sum local = 0.00407559, global = 7.68164e-16, cumulative = 1.11282e-15
smoothSolver:  Solving for nuTilda, Initial residual = 0.0207352, Final residual = 0.000452047, No Iterations 4
ExecutionTime = 0.14 s  ClockTime = 0 s

Time = 5

smoothSolver:  Solving for Ux, Initial residual = 0.111946, Final residual = 0.00213394, No Iterations 4
smoothSolver:  Solving for Uy, Initial residual = 0.0726298, Final residual = 0.00196344, No Iterations 4
GAMG:  Solving for p, Initial residual = 0.791459, Final residual = 0.049586, No Iterations 4
time step continuity errors : sum local = 0.0028284, global = 2.93709e-16, cumulative = 1.40652e-15
smoothSolver:  Solving for nuTilda, Initial residual = 0.0146239, Final residual = 0.000332599, No Iterations 4
ExecutionTime = 0.16 s  ClockTime = 0 s

Time = 6

smoothSolver:  Solving for Ux, Initial residual = 0.182433, Final residual = 0.0172886, No Iterations 2
smoothSolver:  Solving for Uy, Initial residual = 0.129675, Final residual = 0.00283524, No Iterations 4
GAMG:  Solving for p, Initial residual = 0.842767, Final residual = 0.0729042, No Iterations 4
time step continuity errors : sum local = 0.00389076, global = 2.82698e-16, cumulative = 1.68922e-15
smoothSolver:  Solving for nuTilda, Initial residual = 0.0116739, Final residual = 0.000258455, No Iterations 4
ExecutionTime = 0.18 s  ClockTime = 0 s

Time = 7

smoothSolver:  Solving for Ux, Initial residual = 0.118694, Final residual = 0.0104447, No Iterations 2
smoothSolver:  Solving for Uy, Initial residual = 0.120538, Final residual = 0.00275353, No Iterations 4
GAMG:  Solving for p, Initial residual = 0.805488, Final residual = 0.0704883, No Iterations 4
time step continuity errors : sum local = 0.00305683, global = -5.22408e-16, cumulative = 1.16681e-15
smoothSolver:  Solving for nuTilda, Initial residual = 0.00969577, Final residual = 0.000205431, No Iterations 4
bounding nuTilda, min: -0.000724585 max: 0.140401 average: 0.128625
ExecutionTime = 0.2 s  ClockTime = 0 s

Time = 8

smoothSolver:  Solving for Ux, Initial residual = 0.094841, Final residual = 0.00855303, No Iterations 2
smoothSolver:  Solving for Uy, Initial residual = 0.0757441, Final residual = 0.00147883, No Iterations 4
GAMG:  Solving for p, Initial residual = 0.853109, Final residual = 0.0596212, No Iterations 4
time step continuity errors : sum local = 0.0026221, global = 1.7593e-16, cumulative = 1.34274e-15
smoothSolver:  Solving for nuTilda, Initial residual = 0.00806586, Final residual = 0.000164338, No Iterations 4
ExecutionTime = 0.21 s  ClockTime = 0 s

Time = 9

smoothSolver:  Solving for Ux, Initial residual = 0.103901, Final residual = 0.00884178, No Iterations 2
smoothSolver:  Solving for Uy, Initial residual = 0.0527495, Final residual = 0.00093015, No Iterations 4
GAMG:  Solving for p, Initial residual = 0.792779, Final residual = 0.0541873, No Iterations 4
time step continuity errors : sum local = 0.00226257, global = 2.58111e-16, cumulative = 1.60085e-15
smoothSolver:  Solving for nuTilda, Initial residual = 0.00681726, Final residual = 0.000134899, No Iterations 4
ExecutionTime = 0.23 s  ClockTime = 0 s

Time = 10

smoothSolver:  Solving for Ux, Initial residual = 0.0602699, Final residual = 0.00480112, No Iterations 2
smoothSolver:  Solving for Uy, Initial residual = 0.0293411, Final residual = 0.000464356, No Iterations 4
GAMG:  Solving for p, Initial residual = 0.795798, Final residual = 0.0520755, No Iterations 4
time step continuity errors : sum local = 0.0019288, global = 6.50501e-17, cumulative = 1.6659e-15
smoothSolver:  Solving for nuTilda, Initial residual = 0.00599527, Final residual = 0.0001151, No Iterations 4
bounding nuTilda, min: -0.00135394 max: 0.140809 average: 0.126888
ExecutionTime = 0.25 s  ClockTime = 0 s

Time = 11

smoothSolver:  Solving for Ux, Initial residual = 0.0356773, Final residual = 0.00314328, No Iterations 2
smoothSolver:  Solving for Uy, Initial residual = 0.0242261, Final residual = 0.000449792, No Iterations 4
GAMG:  Solving for p, Initial residual = 0.802916, Final residual = 0.043251, No Iterations 4
time step continuity errors : sum local = 0.00152784, global = 1.60786e-16, cumulative = 1.82669e-15
smoothSolver:  Solving for nuTilda, Initial residual = 0.00556147, Final residual = 0.000104234, No Iterations 4
ExecutionTime = 0.26 s  ClockTime = 0 s

Time = 12

smoothSolver:  Solving for Ux, Initial residual = 0.0471389, Final residual = 0.00407074, No Iterations 2
smoothSolver:  Solving for Uy, Initial residual = 0.0378162, Final residual = 0.000758365, No Iterations 4
GAMG:  Solving for p, Initial residual = 0.763778, Final residual = 0.0511456, No Iterations 4
time step continuity errors : sum local = 0.00162165, global = -1.75015e-16, cumulative = 1.65168e-15
smoothSolver:  Solving for nuTilda, Initial residual = 0.00524676, Final residual = 9.65387e-05, No Iterations 4
bounding nuTilda, min: -0.000591825 max: 0.141066 average: 0.126
ExecutionTime = 0.28 s  ClockTime = 0 s

Time = 13

smoothSolver:  Solving for Ux, Initial residual = 0.038853, Final residual = 0.00299481, No Iterations 2
smoothSolver:  Solving for Uy, Initial residual = 0.030939, Final residual = 0.000582081, No Iterations 4
GAMG:  Solving for p, Initial residual = 0.768743, Final residual = 0.0435818, No Iterations 4
time step continuity errors : sum local = 0.00123744, global = 4.09017e-16, cumulative = 2.06069e-15
smoothSolver:  Solving for nuTilda, Initial residual = 0.00493216, Final residual = 8.90547e-05, No Iterations 4
ExecutionTime = 0.29 s  ClockTime = 0 s

Time = 14

smoothSolver:  Solving for Ux, Initial residual = 0.030302, Final residual = 0.00231745, No Iterations 2
smoothSolver:  Solving for Uy, Initial residual = 0.0205675, Final residual = 0.00182294, No Iterations 2
GAMG:  Solving for p, Initial residual = 0.774164, Final residual = 0.0315882, No Iterations 4
time step continuity errors : sum local = 0.000809047, global = -1.64487e-16, cumulative = 1.89621e-15
smoothSolver:  Solving for nuTilda, Initial residual = 0.00460323, Final residual = 8.13764e-05, No Iterations 4
ExecutionTime = 0.32 s  ClockTime = 0 s

Time = 15

smoothSolver:  Solving for Ux, Initial residual = 0.0335351, Final residual = 0.00265316, No Iterations 2
smoothSolver:  Solving for Uy, Initial residual = 0.0241212, Final residual = 0.00239414, No Iterations 2
GAMG:  Solving for p, Initial residual = 0.75195, Final residual = 0.0750123, No Iterations 3
time step continuity errors : sum local = 0.00172694, global = 1.9072e-16, cumulative = 2.08693e-15
smoothSolver:  Solving for nuTilda, Initial residual = 0.00428099, Final residual = 7.43342e-05, No Iterations 4
bounding nuTilda, min: -0.000145794 max: 0.141461 average: 0.1249
ExecutionTime = 0.33 s  ClockTime = 0 s

Time = 16

smoothSolver:  Solving for Ux, Initial residual = 0.0290152, Final residual = 0.00232394, No Iterations 2
smoothSolver:  Solving for Uy, Initial residual = 0.0190079, Final residual = 0.0018088, No Iterations 2
GAMG:  Solving for p, Initial residual = 0.734255, Final residual = 0.0456327, No Iterations 4
time step continuity errors : sum local = 0.000982091, global = -2.38858e-16, cumulative = 1.84807e-15
smoothSolver:  Solving for nuTilda, Initial residual = 0.00404039, Final residual = 6.90883e-05, No Iterations 4
bounding nuTilda, min: -0.00162255 max: 0.141621 average: 0.124592
ExecutionTime = 0.35 s  ClockTime = 1 s

Time = 17

smoothSolver:  Solving for Ux, Initial residual = 0.0214164, Final residual = 0.00182902, No Iterations 2
smoothSolver:  Solving for Uy, Initial residual = 0.01287, Final residual = 0.00125537, No Iterations 2
GAMG:  Solving for p, Initial residual = 0.71314, Final residual = 0.067341, No Iterations 3
time step continuity errors : sum local = 0.0013661, global = 2.84205e-16, cumulative = 2.13227e-15
smoothSolver:  Solving for nuTilda, Initial residual = 0.00389057, Final residual = 6.59599e-05, No Iterations 4
bounding nuTilda, min: -0.00164 max: 0.141774 average: 0.124302
ExecutionTime = 0.37 s  ClockTime = 1 s

Time = 18

smoothSolver:  Solving for Ux, Initial residual = 0.0190784, Final residual = 0.00161375, No Iterations 2
smoothSolver:  Solving for Uy, Initial residual = 0.0146879, Final residual = 0.000291137, No Iterations 4
GAMG:  Solving for p, Initial residual = 0.676188, Final residual = 0.0596873, No Iterations 3
time step continuity errors : sum local = 0.00113316, global = -1.62937e-16, cumulative = 1.96934e-15
smoothSolver:  Solving for nuTilda, Initial residual = 0.00377202, Final residual = 6.38113e-05, No Iterations 4
bounding nuTilda, min: -0.00197388 max: 0.141914 average: 0.124028
ExecutionTime = 0.38 s  ClockTime = 1 s

Time = 19

smoothSolver:  Solving for Ux, Initial residual = 0.0163929, Final residual = 0.00130994, No Iterations 2
smoothSolver:  Solving for Uy, Initial residual = 0.0142513, Final residual = 0.00027256, No Iterations 4
GAMG:  Solving for p, Initial residual = 0.649093, Final residual = 0.0360324, No Iterations 4
time step continuity errors : sum local = 0.00063715, global = -1.56063e-16, cumulative = 1.81327e-15
smoothSolver:  Solving for nuTilda, Initial residual = 0.0036501, Final residual = 6.15824e-05, No Iterations 4
bounding nuTilda, min: -0.00170401 max: 0.142079 average: 0.123766
ExecutionTime = 0.4 s  ClockTime = 1 s

Time = 20

smoothSolver:  Solving for Ux, Initial residual = 0.0159997, Final residual = 0.00126275, No Iterations 2
smoothSolver:  Solving for Uy, Initial residual = 0.0119932, Final residual = 0.00113234, No Iterations 2
GAMG:  Solving for p, Initial residual = 0.629931, Final residual = 0.0596175, No Iterations 3
time step continuity errors : sum local = 0.000992147, global = 8.20909e-17, cumulative = 1.89536e-15
smoothSolver:  Solving for nuTilda, Initial residual = 0.00352954, Final residual = 5.96491e-05, No Iterations 4
bounding nuTilda, min: -0.000847616 max: 0.142232 average: 0.123515
ExecutionTime = 0.41 s  ClockTime = 1 s

Time = 21

smoothSolver:  Solving for Ux, Initial residual = 0.0150054, Final residual = 0.00120559, No Iterations 2
smoothSolver:  Solving for Uy, Initial residual = 0.0117255, Final residual = 0.00100821, No Iterations 2
GAMG:  Solving for p, Initial residual = 0.601053, Final residual = 0.0444671, No Iterations 3
time step continuity errors : sum local = 0.000692656, global = -1.62605e-16, cumulative = 1.73276e-15
smoothSolver:  Solving for nuTilda, Initial residual = 0.00341749, Final residual = 5.78057e-05, No Iterations 4
bounding nuTilda, min: -0.000747195 max: 0.142396 average: 0.123276
ExecutionTime = 0.43 s  ClockTime = 1 s

Time = 22

smoothSolver:  Solving for Ux, Initial residual = 0.013442, Final residual = 0.00111863, No Iterations 2
smoothSolver:  Solving for Uy, Initial residual = 0.0108087, Final residual = 0.000982953, No Iterations 2
GAMG:  Solving for p, Initial residual = 0.59551, Final residual = 0.0529682, No Iterations 3
time step continuity errors : sum local = 0.000774664, global = 9.89024e-17, cumulative = 1.83166e-15
smoothSolver:  Solving for nuTilda, Initial residual = 0.00332069, Final residual = 5.6326e-05, No Iterations 4
bounding nuTilda, min: -0.000698503 max: 0.142566 average: 0.123046
ExecutionTime = 0.45 s  ClockTime = 1 s

Time = 23

smoothSolver:  Solving for Ux, Initial residual = 0.0127861, Final residual = 0.00112065, No Iterations 2
smoothSolver:  Solving for Uy, Initial residual = 0.00952751, Final residual = 0.000156253, No Iterations 4
GAMG:  Solving for p, Initial residual = 0.59398, Final residual = 0.05376, No Iterations 3
time step continuity errors : sum local = 0.00075502, global = 3.15497e-16, cumulative = 2.14716e-15
smoothSolver:  Solving for nuTilda, Initial residual = 0.00323818, Final residual = 5.52437e-05, No Iterations 4
bounding nuTilda, min: -0.000543085 max: 0.142735 average: 0.122826
ExecutionTime = 0.46 s  ClockTime = 1 s

Time = 24

smoothSolver:  Solving for Ux, Initial residual = 0.0127467, Final residual = 0.00113326, No Iterations 2
smoothSolver:  Solving for Uy, Initial residual = 0.00910545, Final residual = 0.000160079, No Iterations 4
GAMG:  Solving for p, Initial residual = 0.567646, Final residual = 0.047569, No Iterations 3
time step continuity errors : sum local = 0.000641943, global = 2.12273e-17, cumulative = 2.16839e-15
smoothSolver:  Solving for nuTilda, Initial residual = 0.00316745, Final residual = 5.44292e-05, No Iterations 4
bounding nuTilda, min: -0.000214097 max: 0.142916 average: 0.122613
ExecutionTime = 0.48 s  ClockTime = 1 s

Time = 25

smoothSolver:  Solving for Ux, Initial residual = 0.0126108, Final residual = 0.00105867, No Iterations 2
smoothSolver:  Solving for Uy, Initial residual = 0.00941562, Final residual = 0.000158236, No Iterations 4
GAMG:  Solving for p, Initial residual = 0.537761, Final residual = 0.0404733, No Iterations 3
time step continuity errors : sum local = 0.000513588, global = 1.28709e-16, cumulative = 2.2971e-15
smoothSolver:  Solving for nuTilda, Initial residual = 0.00310141, Final residual = 5.38111e-05, No Iterations 4
ExecutionTime = 0.49 s  ClockTime = 1 s

Time = 26

smoothSolver:  Solving for Ux, Initial residual = 0.0121938, Final residual = 0.0010031, No Iterations 2
smoothSolver:  Solving for Uy, Initial residual = 0.00899155, Final residual = 0.000866732, No Iterations 2
GAMG:  Solving for p, Initial residual = 0.519047, Final residual = 0.0464147, No Iterations 3
time step continuity errors : sum local = 0.000570438, global = -5.92482e-16, cumulative = 1.70461e-15
smoothSolver:  Solving for nuTilda, Initial residual = 0.00303356, Final residual = 5.32699e-05, No Iterations 4
bounding nuTilda, min: -0.000909495 max: 0.143289 average: 0.122202
ExecutionTime = 0.51 s  ClockTime = 1 s

Time = 27

smoothSolver:  Solving for Ux, Initial residual = 0.0110448, Final residual = 0.000937828, No Iterations 2
smoothSolver:  Solving for Uy, Initial residual = 0.00884321, Final residual = 0.000869305, No Iterations 2
GAMG:  Solving for p, Initial residual = 0.503719, Final residual = 0.0435003, No Iterations 3
time step continuity errors : sum local = 0.000518005, global = 2.24972e-17, cumulative = 1.72711e-15
smoothSolver:  Solving for nuTilda, Initial residual = 0.00296838, Final residual = 5.2785e-05, No Iterations 4
bounding nuTilda, min: -0.000879841 max: 0.143472 average: 0.122002
ExecutionTime = 0.52 s  ClockTime = 1 s

Time = 28

smoothSolver:  Solving for Ux, Initial residual = 0.00978445, Final residual = 0.00083759, No Iterations 2
smoothSolver:  Solving for Uy, Initial residual = 0.00861273, Final residual = 0.000157829, No Iterations 4
GAMG:  Solving for p, Initial residual = 0.487348, Final residual = 0.0380744, No Iterations 3
time step continuity errors : sum local = 0.000445025, global = 1.70983e-17, cumulative = 1.74421e-15
smoothSolver:  Solving for nuTilda, Initial residual = 0.00290736, Final residual = 5.2357e-05, No Iterations 4
bounding nuTilda, min: -0.00023568 max: 0.143664 average: 0.121805
ExecutionTime = 0.54 s  ClockTime = 1 s

Time = 29

smoothSolver:  Solving for Ux, Initial residual = 0.00973733, Final residual = 0.000828838, No Iterations 2
smoothSolver:  Solving for Uy, Initial residual = 0.00808035, Final residual = 0.000157415, No Iterations 4
GAMG:  Solving for p, Initial residual = 0.467725, Final residual = 0.0189978, No Iterations 4
time step continuity errors : sum local = 0.000212127, global = 1.44677e-16, cumulative = 1.88889e-15
smoothSolver:  Solving for nuTilda, Initial residual = 0.00284524, Final residual = 5.194e-05, No Iterations 4
bounding nuTilda, min: -0.000111726 max: 0.143861 average: 0.121613
ExecutionTime = 0.56 s  ClockTime = 1 s

Time = 30

smoothSolver:  Solving for Ux, Initial residual = 0.0103949, Final residual = 0.000907724, No Iterations 2
smoothSolver:  Solving for Uy, Initial residual = 0.00756002, Final residual = 0.000138147, No Iterations 4
GAMG:  Solving for p, Initial residual = 0.451347, Final residual = 0.0411867, No Iterations 3
time step continuity errors : sum local = 0.000451293, global = 3.61499e-16, cumulative = 2.25038e-15
smoothSolver:  Solving for nuTilda, Initial residual = 0.00278718, Final residual = 5.16869e-05, No Iterations 4
ExecutionTime = 0.58 s  ClockTime = 1 s

Time = 31

smoothSolver:  Solving for Ux, Initial residual = 0.0106893, Final residual = 0.000934993, No Iterations 2
smoothSolver:  Solving for Uy, Initial residual = 0.00705896, Final residual = 0.000698921, No Iterations 2
GAMG:  Solving for p, Initial residual = 0.43508, Final residual = 0.035075, No Iterations 3
time step continuity errors : sum local = 0.000374799, global = -2.60135e-16, cumulative = 1.99025e-15
smoothSolver:  Solving for nuTilda, Initial residual = 0.00273384, Final residual = 5.15257e-05, No Iterations 4
ExecutionTime = 0.59 s  ClockTime = 1 s

Time = 32

smoothSolver:  Solving for Ux, Initial residual = 0.0103808, Final residual = 0.000896081, No Iterations 2
smoothSolver:  Solving for Uy, Initial residual = 0.00698445, Final residual = 0.000120942, No Iterations 4
GAMG:  Solving for p, Initial residual = 0.413822, Final residual = 0.0352141, No Iterations 3
time step continuity errors : sum local = 0.000368973, global = -1.60118e-16, cumulative = 1.83013e-15
smoothSolver:  Solving for nuTilda, Initial residual = 0.00268718, Final residual = 5.13796e-05, No Iterations 4
ExecutionTime = 0.61 s  ClockTime = 1 s

Time = 33

smoothSolver:  Solving for Ux, Initial residual = 0.00976341, Final residual = 0.000831642, No Iterations 2
smoothSolver:  Solving for Uy, Initial residual = 0.00697939, Final residual = 0.000128068, No Iterations 4
GAMG:  Solving for p, Initial residual = 0.391709, Final residual = 0.0296516, No Iterations 4
time step continuity errors : sum local = 0.000305992, global = -6.49285e-17, cumulative = 1.7652e-15
smoothSolver:  Solving for nuTilda, Initial residual = 0.0026441, Final residual = 5.11332e-05, No Iterations 4
ExecutionTime = 0.63 s  ClockTime = 1 s

Time = 34

smoothSolver:  Solving for Ux, Initial residual = 0.00930927, Final residual = 0.000792099, No Iterations 2
smoothSolver:  Solving for Uy, Initial residual = 0.00719523, Final residual = 0.000137325, No Iterations 4
GAMG:  Solving for p, Initial residual = 0.375746, Final residual = 0.0285219, No Iterations 3
time step continuity errors : sum local = 0.00029084, global = 6.24325e-17, cumulative = 1.82764e-15
smoothSolver:  Solving for nuTilda, Initial residual = 0.00260497, Final residual = 5.08862e-05, No Iterations 4
ExecutionTime = 0.64 s  ClockTime = 1 s

Time = 35

smoothSolver:  Solving for Ux, Initial residual = 0.00934988, Final residual = 0.000782684, No Iterations 2
smoothSolver:  Solving for Uy, Initial residual = 0.00701589, Final residual = 0.000137596, No Iterations 4
GAMG:  Solving for p, Initial residual = 0.364833, Final residual = 0.033218, No Iterations 3
time step continuity errors : sum local = 0.000334147, global = -8.50505e-18, cumulative = 1.81913e-15
smoothSolver:  Solving for nuTilda, Initial residual = 0.0025663, Final residual = 5.05996e-05, No Iterations 4
bounding nuTilda, min: -2.24172e-05 max: 0.145137 average: 0.120525
ExecutionTime = 0.66 s  ClockTime = 1 s

Time = 36

smoothSolver:  Solving for Ux, Initial residual = 0.00958267, Final residual = 0.000792246, No Iterations 2
smoothSolver:  Solving for Uy, Initial residual = 0.00649639, Final residual = 0.000128419, No Iterations 4
GAMG:  Solving for p, Initial residual = 0.346608, Final residual = 0.030078, No Iterations 3
time step continuity errors : sum local = 0.000287324, global = -6.32989e-17, cumulative = 1.75583e-15
smoothSolver:  Solving for nuTilda, Initial residual = 0.00253064, Final residual = 5.0311e-05, No Iterations 4
ExecutionTime = 0.67 s  ClockTime = 1 s

Time = 37

smoothSolver:  Solving for Ux, Initial residual = 0.00947976, Final residual = 0.000806384, No Iterations 2
smoothSolver:  Solving for Uy, Initial residual = 0.00607802, Final residual = 0.000118559, No Iterations 4
GAMG:  Solving for p, Initial residual = 0.325105, Final residual = 0.0144913, No Iterations 4
time step continuity errors : sum local = 0.000135145, global = -5.18803e-18, cumulative = 1.75064e-15
smoothSolver:  Solving for nuTilda, Initial residual = 0.00249614, Final residual = 5.00378e-05, No Iterations 4
ExecutionTime = 0.69 s  ClockTime = 1 s

Time = 38

smoothSolver:  Solving for Ux, Initial residual = 0.00928498, Final residual = 0.000809113, No Iterations 2
smoothSolver:  Solving for Uy, Initial residual = 0.00584188, Final residual = 0.000111649, No Iterations 4
GAMG:  Solving for p, Initial residual = 0.306342, Final residual = 0.0249256, No Iterations 3
time step continuity errors : sum local = 0.000230618, global = -2.09195e-16, cumulative = 1.54145e-15
smoothSolver:  Solving for nuTilda, Initial residual = 0.00246735, Final residual = 4.98812e-05, No Iterations 4
ExecutionTime = 0.71 s  ClockTime = 1 s

Time = 39

smoothSolver:  Solving for Ux, Initial residual = 0.0092142, Final residual = 0.000789305, No Iterations 2
smoothSolver:  Solving for Uy, Initial residual = 0.00574029, Final residual = 0.000110653, No Iterations 4
GAMG:  Solving for p, Initial residual = 0.293938, Final residual = 0.0244, No Iterations 3
time step continuity errors : sum local = 0.000222982, global = -2.4112e-16, cumulative = 1.30033e-15
smoothSolver:  Solving for nuTilda, Initial residual = 0.00244048, Final residual = 4.96892e-05, No Iterations 4
ExecutionTime = 0.72 s  ClockTime = 1 s

Time = 40

smoothSolver:  Solving for Ux, Initial residual = 0.00912783, Final residual = 0.000763318, No Iterations 2
smoothSolver:  Solving for Uy, Initial residual = 0.00570994, Final residual = 0.000113937, No Iterations 4
GAMG:  Solving for p, Initial residual = 0.275023, Final residual = 0.0183951, No Iterations 4
time step continuity errors : sum local = 0.00016705, global = -1.05205e-17, cumulative = 1.28981e-15
smoothSolver:  Solving for nuTilda, Initial residual = 0.00241477, Final residual = 4.9458e-05, No Iterations 4
ExecutionTime = 0.74 s  ClockTime = 1 s

Time = 41

smoothSolver:  Solving for Ux, Initial residual = 0.0089605, Final residual = 0.000739839, No Iterations 2
smoothSolver:  Solving for Uy, Initial residual = 0.00578666, Final residual = 0.000116339, No Iterations 4
GAMG:  Solving for p, Initial residual = 0.254331, Final residual = 0.0236641, No Iterations 3
time step continuity errors : sum local = 0.000212532, global = -6.31417e-17, cumulative = 1.22667e-15
smoothSolver:  Solving for nuTilda, Initial residual = 0.00238896, Final residual = 4.91955e-05, No Iterations 4
ExecutionTime = 0.75 s  ClockTime = 1 s

Time = 42

smoothSolver:  Solving for Ux, Initial residual = 0.00891442, Final residual = 0.00073527, No Iterations 2
smoothSolver:  Solving for Uy, Initial residual = 0.00565899, Final residual = 0.000113306, No Iterations 4
GAMG:  Solving for p, Initial residual = 0.245444, Final residual = 0.00895885, No Iterations 4
time step continuity errors : sum local = 7.86105e-05, global = -5.42487e-16, cumulative = 6.8418e-16
smoothSolver:  Solving for nuTilda, Initial residual = 0.00236252, Final residual = 4.89282e-05, No Iterations 4
ExecutionTime = 0.77 s  ClockTime = 1 s

Time = 43

smoothSolver:  Solving for Ux, Initial residual = 0.00889759, Final residual = 0.000733421, No Iterations 2
smoothSolver:  Solving for Uy, Initial residual = 0.00535595, Final residual = 0.000107045, No Iterations 4
GAMG:  Solving for p, Initial residual = 0.230871, Final residual = 0.0220058, No Iterations 3
time step continuity errors : sum local = 0.000193624, global = -3.81792e-16, cumulative = 3.02388e-16
smoothSolver:  Solving for nuTilda, Initial residual = 0.00233779, Final residual = 4.86655e-05, No Iterations 4
ExecutionTime = 0.78 s  ClockTime = 1 s

Time = 44

smoothSolver:  Solving for Ux, Initial residual = 0.00868054, Final residual = 0.000723911, No Iterations 2
smoothSolver:  Solving for Uy, Initial residual = 0.00509503, Final residual = 0.000102387, No Iterations 4
GAMG:  Solving for p, Initial residual = 0.215008, Final residual = 0.0196082, No Iterations 3
time step continuity errors : sum local = 0.000167485, global = 1.51168e-16, cumulative = 4.53555e-16
smoothSolver:  Solving for nuTilda, Initial residual = 0.0023125, Final residual = 4.84375e-05, No Iterations 4
ExecutionTime = 0.8 s  ClockTime = 1 s

Time = 45

smoothSolver:  Solving for Ux, Initial residual = 0.00847201, Final residual = 0.000708961, No Iterations 2
smoothSolver:  Solving for Uy, Initial residual = 0.0049663, Final residual = 0.000100975, No Iterations 4
GAMG:  Solving for p, Initial residual = 0.198252, Final residual = 0.00866624, No Iterations 4
time step continuity errors : sum local = 7.42384e-05, global = 1.4692e-16, cumulative = 6.00475e-16
smoothSolver:  Solving for nuTilda, Initial residual = 0.00228872, Final residual = 4.82366e-05, No Iterations 4
ExecutionTime = 0.81 s  ClockTime = 1 s

Time = 46

smoothSolver:  Solving for Ux, Initial residual = 0.00843569, Final residual = 0.00070374, No Iterations 2
smoothSolver:  Solving for Uy, Initial residual = 0.00493027, Final residual = 0.000100541, No Iterations 4
GAMG:  Solving for p, Initial residual = 0.186172, Final residual = 0.0173551, No Iterations 3
time step continuity errors : sum local = 0.0001493, global = -1.94169e-16, cumulative = 4.06306e-16
smoothSolver:  Solving for nuTilda, Initial residual = 0.00226606, Final residual = 4.80441e-05, No Iterations 4
ExecutionTime = 0.83 s  ClockTime = 1 s

Time = 47

smoothSolver:  Solving for Ux, Initial residual = 0.00839052, Final residual = 0.000697788, No Iterations 2
smoothSolver:  Solving for Uy, Initial residual = 0.00485123, Final residual = 9.86371e-05, No Iterations 4
GAMG:  Solving for p, Initial residual = 0.17867, Final residual = 0.0157927, No Iterations 3
time step continuity errors : sum local = 0.000135898, global = 3.03636e-16, cumulative = 7.09942e-16
smoothSolver:  Solving for nuTilda, Initial residual = 0.00224916, Final residual = 4.78806e-05, No Iterations 4
ExecutionTime = 0.85 s  ClockTime = 1 s

Time = 48

smoothSolver:  Solving for Ux, Initial residual = 0.00827935, Final residual = 0.000687726, No Iterations 2
smoothSolver:  Solving for Uy, Initial residual = 0.00472585, Final residual = 9.55126e-05, No Iterations 4
GAMG:  Solving for p, Initial residual = 0.167709, Final residual = 0.00586775, No Iterations 4
time step continuity errors : sum local = 4.98355e-05, global = 1.05792e-16, cumulative = 8.15734e-16
smoothSolver:  Solving for nuTilda, Initial residual = 0.00223194, Final residual = 4.76965e-05, No Iterations 4
ExecutionTime = 0.86 s  ClockTime = 1 s

Time = 49

smoothSolver:  Solving for Ux, Initial residual = 0.00811527, Final residual = 0.000672427, No Iterations 2
smoothSolver:  Solving for Uy, Initial residual = 0.00461943, Final residual = 9.21528e-05, No Iterations 4
GAMG:  Solving for p, Initial residual = 0.154961, Final residual = 0.00611447, No Iterations 4
time step continuity errors : sum local = 5.13907e-05, global = 2.69294e-17, cumulative = 8.42663e-16
smoothSolver:  Solving for nuTilda, Initial residual = 0.0022156, Final residual = 4.75197e-05, No Iterations 4
ExecutionTime = 0.88 s  ClockTime = 1 s

Time = 50

smoothSolver:  Solving for Ux, Initial residual = 0.00800522, Final residual = 0.000660116, No Iterations 2
smoothSolver:  Solving for Uy, Initial residual = 0.00450322, Final residual = 8.96958e-05, No Iterations 4
GAMG:  Solving for p, Initial residual = 0.14691, Final residual = 0.0123842, No Iterations 3
time step continuity errors : sum local = 0.000105007, global = 4.0908e-17, cumulative = 8.83571e-16
smoothSolver:  Solving for nuTilda, Initial residual = 0.00220162, Final residual = 4.73537e-05, No Iterations 4
ExecutionTime = 0.93 s  ClockTime = 1 s

Time = 51

smoothSolver:  Solving for Ux, Initial residual = 0.00788257, Final residual = 0.000647013, No Iterations 2
smoothSolver:  Solving for Uy, Initial residual = 0.00439975, Final residual = 8.82839e-05, No Iterations 4
GAMG:  Solving for p, Initial residual = 0.138563, Final residual = 0.0107372, No Iterations 3
time step continuity errors : sum local = 8.88129e-05, global = 2.21201e-16, cumulative = 1.10477e-15
smoothSolver:  Solving for nuTilda, Initial residual = 0.0021881, Final residual = 4.71887e-05, No Iterations 4
ExecutionTime = 0.94 s  ClockTime = 1 s

Time = 52

smoothSolver:  Solving for Ux, Initial residual = 0.00770564, Final residual = 0.000634147, No Iterations 2
smoothSolver:  Solving for Uy, Initial residual = 0.00432723, Final residual = 8.72827e-05, No Iterations 4
GAMG:  Solving for p, Initial residual = 0.12892, Final residual = 0.00540226, No Iterations 4
time step continuity errors : sum local = 4.52314e-05, global = -1.36988e-16, cumulative = 9.67784e-16
smoothSolver:  Solving for nuTilda, Initial residual = 0.00217699, Final residual = 4.70689e-05, No Iterations 4
ExecutionTime = 0.96 s  ClockTime = 1 s

Time = 53

smoothSolver:  Solving for Ux, Initial residual = 0.00754229, Final residual = 0.000627963, No Iterations 2
smoothSolver:  Solving for Uy, Initial residual = 0.00427823, Final residual = 8.57476e-05, No Iterations 4
GAMG:  Solving for p, Initial residual = 0.118969, Final residual = 0.00473965, No Iterations 4
time step continuity errors : sum local = 3.96819e-05, global = 2.19486e-16, cumulative = 1.18727e-15
smoothSolver:  Solving for nuTilda, Initial residual = 0.00216438, Final residual = 4.6946e-05, No Iterations 4
ExecutionTime = 0.98 s  ClockTime = 1 s

Time = 54

smoothSolver:  Solving for Ux, Initial residual = 0.00744244, Final residual = 0.00062121, No Iterations 2
smoothSolver:  Solving for Uy, Initial residual = 0.00420847, Final residual = 8.3273e-05, No Iterations 4
GAMG:  Solving for p, Initial residual = 0.111989, Final residual = 0.00852666, No Iterations 3
time step continuity errors : sum local = 7.25083e-05, global = 1.27093e-16, cumulative = 1.31436e-15
smoothSolver:  Solving for nuTilda, Initial residual = 0.00215441, Final residual = 4.6855e-05, No Iterations 4
ExecutionTime = 0.99 s  ClockTime = 1 s

Time = 55

smoothSolver:  Solving for Ux, Initial residual = 0.00731485, Final residual = 0.000608937, No Iterations 2
smoothSolver:  Solving for Uy, Initial residual = 0.00410541, Final residual = 8.03607e-05, No Iterations 4
GAMG:  Solving for p, Initial residual = 0.107081, Final residual = 0.0073438, No Iterations 3
time step continuity errors : sum local = 6.11059e-05, global = 3.86564e-16, cumulative = 1.70093e-15
smoothSolver:  Solving for nuTilda, Initial residual = 0.00214424, Final residual = 4.6735e-05, No Iterations 4
ExecutionTime = 1.01 s  ClockTime = 1 s

Time = 56

smoothSolver:  Solving for Ux, Initial residual = 0.00717465, Final residual = 0.000593906, No Iterations 2
smoothSolver:  Solving for Uy, Initial residual = 0.00400264, Final residual = 7.80435e-05, No Iterations 4
GAMG:  Solving for p, Initial residual = 0.100444, Final residual = 0.00382231, No Iterations 4
time step continuity errors : sum local = 3.20865e-05, global = 2.33505e-17, cumulative = 1.72428e-15
smoothSolver:  Solving for nuTilda, Initial residual = 0.00213592, Final residual = 4.66381e-05, No Iterations 4
ExecutionTime = 1.03 s  ClockTime = 1 s

Time = 57

smoothSolver:  Solving for Ux, Initial residual = 0.00710927, Final residual = 0.000583113, No Iterations 2
smoothSolver:  Solving for Uy, Initial residual = 0.00390672, Final residual = 7.62046e-05, No Iterations 4
GAMG:  Solving for p, Initial residual = 0.0932145, Final residual = 0.00902893, No Iterations 3
time step continuity errors : sum local = 7.67944e-05, global = -3.07338e-16, cumulative = 1.41694e-15
smoothSolver:  Solving for nuTilda, Initial residual = 0.0021273, Final residual = 4.65401e-05, No Iterations 4
ExecutionTime = 1.04 s  ClockTime = 1 s

Time = 58

smoothSolver:  Solving for Ux, Initial residual = 0.00700299, Final residual = 0.000572014, No Iterations 2
smoothSolver:  Solving for Uy, Initial residual = 0.00385095, Final residual = 7.47451e-05, No Iterations 4
GAMG:  Solving for p, Initial residual = 0.086718, Final residual = 0.00598358, No Iterations 3
time step continuity errors : sum local = 5.00523e-05, global = -2.65534e-16, cumulative = 1.15141e-15
smoothSolver:  Solving for nuTilda, Initial residual = 0.0021179, Final residual = 4.64577e-05, No Iterations 4
ExecutionTime = 1.06 s  ClockTime = 1 s

Time = 59

smoothSolver:  Solving for Ux, Initial residual = 0.00683616, Final residual = 0.000559224, No Iterations 2
smoothSolver:  Solving for Uy, Initial residual = 0.00380456, Final residual = 7.35909e-05, No Iterations 4
GAMG:  Solving for p, Initial residual = 0.0820947, Final residual = 0.00679012, No Iterations 3
time step continuity errors : sum local = 5.66298e-05, global = -3.19595e-16, cumulative = 8.31811e-16
smoothSolver:  Solving for nuTilda, Initial residual = 0.00210666, Final residual = 4.63775e-05, No Iterations 4
ExecutionTime = 1.08 s  ClockTime = 1 s

Time = 60

smoothSolver:  Solving for Ux, Initial residual = 0.00665756, Final residual = 0.000546914, No Iterations 2
smoothSolver:  Solving for Uy, Initial residual = 0.00377182, Final residual = 7.21021e-05, No Iterations 4
GAMG:  Solving for p, Initial residual = 0.0765411, Final residual = 0.00662539, No Iterations 3
time step continuity errors : sum local = 5.52448e-05, global = 3.16685e-16, cumulative = 1.1485e-15
smoothSolver:  Solving for nuTilda, Initial residual = 0.00209473, Final residual = 4.63099e-05, No Iterations 4
ExecutionTime = 1.09 s  ClockTime = 1 s

Time = 61

smoothSolver:  Solving for Ux, Initial residual = 0.00652647, Final residual = 0.000536945, No Iterations 2
smoothSolver:  Solving for Uy, Initial residual = 0.00374575, Final residual = 7.03573e-05, No Iterations 4
GAMG:  Solving for p, Initial residual = 0.0710439, Final residual = 0.00574765, No Iterations 3
time step continuity errors : sum local = 4.80245e-05, global = -2.88616e-16, cumulative = 8.5988e-16
smoothSolver:  Solving for nuTilda, Initial residual = 0.00208223, Final residual = 4.62364e-05, No Iterations 4
ExecutionTime = 1.11 s  ClockTime = 1 s

Time = 62

smoothSolver:  Solving for Ux, Initial residual = 0.00640977, Final residual = 0.000525792, No Iterations 2
smoothSolver:  Solving for Uy, Initial residual = 0.00370542, Final residual = 6.85657e-05, No Iterations 4
GAMG:  Solving for p, Initial residual = 0.06694, Final residual = 0.00446165, No Iterations 3
time step continuity errors : sum local = 3.73875e-05, global = 4.38687e-16, cumulative = 1.29857e-15
smoothSolver:  Solving for nuTilda, Initial residual = 0.00206818, Final residual = 4.6169e-05, No Iterations 4
ExecutionTime = 1.12 s  ClockTime = 1 s

Time = 63

smoothSolver:  Solving for Ux, Initial residual = 0.00629434, Final residual = 0.000513602, No Iterations 2
smoothSolver:  Solving for Uy, Initial residual = 0.00364869, Final residual = 6.6858e-05, No Iterations 4
GAMG:  Solving for p, Initial residual = 0.0639903, Final residual = 0.00472339, No Iterations 3
time step continuity errors : sum local = 3.95581e-05, global = 1.85442e-17, cumulative = 1.31711e-15
smoothSolver:  Solving for nuTilda, Initial residual = 0.00205341, Final residual = 4.60993e-05, No Iterations 4
ExecutionTime = 1.14 s  ClockTime = 1 s

Time = 64

smoothSolver:  Solving for Ux, Initial residual = 0.00617641, Final residual = 0.000501411, No Iterations 2
smoothSolver:  Solving for Uy, Initial residual = 0.00357802, Final residual = 6.52575e-05, No Iterations 4
GAMG:  Solving for p, Initial residual = 0.0606014, Final residual = 0.00234052, No Iterations 4
time step continuity errors : sum local = 1.98266e-05, global = 2.20159e-16, cumulative = 1.53727e-15
smoothSolver:  Solving for nuTilda, Initial residual = 0.00203878, Final residual = 4.60361e-05, No Iterations 4
ExecutionTime = 1.16 s  ClockTime = 1 s

Time = 65

smoothSolver:  Solving for Ux, Initial residual = 0.00607625, Final residual = 0.000491655, No Iterations 2
smoothSolver:  Solving for Uy, Initial residual = 0.00348676, Final residual = 6.34849e-05, No Iterations 4
GAMG:  Solving for p, Initial residual = 0.0563065, Final residual = 0.00424702, No Iterations 3
time step continuity errors : sum local = 3.58416e-05, global = 8.53593e-17, cumulative = 1.62263e-15
smoothSolver:  Solving for nuTilda, Initial residual = 0.00202326, Final residual = 4.59639e-05, No Iterations 4
ExecutionTime = 1.17 s  ClockTime = 1 s

Time = 66

smoothSolver:  Solving for Ux, Initial residual = 0.00593959, Final residual = 0.000480156, No Iterations 2
smoothSolver:  Solving for Uy, Initial residual = 0.00344568, Final residual = 6.22246e-05, No Iterations 4
GAMG:  Solving for p, Initial residual = 0.0528335, Final residual = 0.00328875, No Iterations 3
time step continuity errors : sum local = 2.7849e-05, global = 2.12172e-16, cumulative = 1.8348e-15
smoothSolver:  Solving for nuTilda, Initial residual = 0.00200746, Final residual = 4.58939e-05, No Iterations 4
ExecutionTime = 1.19 s  ClockTime = 1 s

Time = 67

smoothSolver:  Solving for Ux, Initial residual = 0.00579303, Final residual = 0.000468128, No Iterations 2
smoothSolver:  Solving for Uy, Initial residual = 0.00342249, Final residual = 6.12888e-05, No Iterations 4
GAMG:  Solving for p, Initial residual = 0.0501261, Final residual = 0.00353598, No Iterations 3
time step continuity errors : sum local = 2.99477e-05, global = 4.47136e-16, cumulative = 2.28194e-15
smoothSolver:  Solving for nuTilda, Initial residual = 0.00199091, Final residual = 4.58209e-05, No Iterations 4
ExecutionTime = 1.21 s  ClockTime = 1 s

Time = 68

smoothSolver:  Solving for Ux, Initial residual = 0.00564839, Final residual = 0.000456066, No Iterations 2
smoothSolver:  Solving for Uy, Initial residual = 0.00341571, Final residual = 6.04631e-05, No Iterations 4
GAMG:  Solving for p, Initial residual = 0.046785, Final residual = 0.003669, No Iterations 3
time step continuity errors : sum local = 3.11076e-05, global = 2.28604e-16, cumulative = 2.51054e-15
smoothSolver:  Solving for nuTilda, Initial residual = 0.00197276, Final residual = 4.57405e-05, No Iterations 4
ExecutionTime = 1.23 s  ClockTime = 1 s

Time = 69

smoothSolver:  Solving for Ux, Initial residual = 0.00552428, Final residual = 0.000445204, No Iterations 2
smoothSolver:  Solving for Uy, Initial residual = 0.00340738, Final residual = 5.94082e-05, No Iterations 4
GAMG:  Solving for p, Initial residual = 0.0439781, Final residual = 0.00345904, No Iterations 3
time step continuity errors : sum local = 2.93831e-05, global = -7.82941e-17, cumulative = 2.43225e-15
smoothSolver:  Solving for nuTilda, Initial residual = 0.00195434, Final residual = 4.5655e-05, No Iterations 4
ExecutionTime = 1.24 s  ClockTime = 1 s

Time = 70

smoothSolver:  Solving for Ux, Initial residual = 0.00541661, Final residual = 0.000434942, No Iterations 2
smoothSolver:  Solving for Uy, Initial residual = 0.00338052, Final residual = 5.80913e-05, No Iterations 4
GAMG:  Solving for p, Initial residual = 0.0416529, Final residual = 0.00327959, No Iterations 3
time step continuity errors : sum local = 2.78778e-05, global = 2.50703e-16, cumulative = 2.68295e-15
smoothSolver:  Solving for nuTilda, Initial residual = 0.00193526, Final residual = 4.5567e-05, No Iterations 4
ExecutionTime = 1.25 s  ClockTime = 1 s

Time = 71

smoothSolver:  Solving for Ux, Initial residual = 0.00531066, Final residual = 0.000424635, No Iterations 2
smoothSolver:  Solving for Uy, Initial residual = 0.00333381, Final residual = 5.66807e-05, No Iterations 4
GAMG:  Solving for p, Initial residual = 0.03985, Final residual = 0.00319881, No Iterations 3
time step continuity errors : sum local = 2.7201e-05, global = -8.14657e-17, cumulative = 2.60149e-15
smoothSolver:  Solving for nuTilda, Initial residual = 0.0019157, Final residual = 4.54748e-05, No Iterations 4
ExecutionTime = 1.27 s  ClockTime = 1 s

Time = 72

smoothSolver:  Solving for Ux, Initial residual = 0.00520201, Final residual = 0.000414394, No Iterations 2
smoothSolver:  Solving for Uy, Initial residual = 0.00326737, Final residual = 5.53103e-05, No Iterations 4
GAMG:  Solving for p, Initial residual = 0.0377217, Final residual = 0.00338555, No Iterations 3
time step continuity errors : sum local = 2.87736e-05, global = 3.99275e-16, cumulative = 3.00076e-15
smoothSolver:  Solving for nuTilda, Initial residual = 0.00189503, Final residual = 4.53731e-05, No Iterations 4
ExecutionTime = 1.29 s  ClockTime = 1 s

Time = 73

smoothSolver:  Solving for Ux, Initial residual = 0.00508822, Final residual = 0.000404197, No Iterations 2
smoothSolver:  Solving for Uy, Initial residual = 0.00319807, Final residual = 5.40721e-05, No Iterations 4
GAMG:  Solving for p, Initial residual = 0.0353945, Final residual = 0.00312181, No Iterations 3
time step continuity errors : sum local = 2.66143e-05, global = 1.23277e-16, cumulative = 3.12404e-15
smoothSolver:  Solving for nuTilda, Initial residual = 0.00187229, Final residual = 4.52542e-05, No Iterations 4
ExecutionTime = 1.3 s  ClockTime = 1 s

Time = 74

smoothSolver:  Solving for Ux, Initial residual = 0.00498039, Final residual = 0.000394379, No Iterations 2
smoothSolver:  Solving for Uy, Initial residual = 0.00315516, Final residual = 5.31141e-05, No Iterations 4
GAMG:  Solving for p, Initial residual = 0.0336204, Final residual = 0.00241876, No Iterations 3
time step continuity errors : sum local = 2.06971e-05, global = 1.45626e-16, cumulative = 3.26966e-15
smoothSolver:  Solving for nuTilda, Initial residual = 0.00184855, Final residual = 4.51162e-05, No Iterations 4
ExecutionTime = 1.32 s  ClockTime = 1 s

Time = 75

smoothSolver:  Solving for Ux, Initial residual = 0.00488327, Final residual = 0.000384335, No Iterations 2
smoothSolver:  Solving for Uy, Initial residual = 0.00313517, Final residual = 0.000313067, No Iterations 2
GAMG:  Solving for p, Initial residual = 0.0335896, Final residual = 0.002462, No Iterations 3
time step continuity errors : sum local = 2.11317e-05, global = 8.98517e-17, cumulative = 3.35951e-15
smoothSolver:  Solving for nuTilda, Initial residual = 0.001823, Final residual = 4.49606e-05, No Iterations 4
ExecutionTime = 1.34 s  ClockTime = 1 s

Time = 76

smoothSolver:  Solving for Ux, Initial residual = 0.00476515, Final residual = 0.000373992, No Iterations 2
smoothSolver:  Solving for Uy, Initial residual = 0.00315941, Final residual = 5.46489e-05, No Iterations 4
GAMG:  Solving for p, Initial residual = 0.0307869, Final residual = 0.00246425, No Iterations 3
time step continuity errors : sum local = 2.10897e-05, global = 1.77651e-16, cumulative = 3.53717e-15
smoothSolver:  Solving for nuTilda, Initial residual = 0.00179649, Final residual = 4.47971e-05, No Iterations 4
ExecutionTime = 1.35 s  ClockTime = 2 s

Time = 77

smoothSolver:  Solving for Ux, Initial residual = 0.00466352, Final residual = 0.000363368, No Iterations 2
smoothSolver:  Solving for Uy, Initial residual = 0.0031619, Final residual = 5.34343e-05, No Iterations 4
GAMG:  Solving for p, Initial residual = 0.0300068, Final residual = 0.00294521, No Iterations 3
time step continuity errors : sum local = 2.5145e-05, global = -5.32141e-16, cumulative = 3.00502e-15
smoothSolver:  Solving for nuTilda, Initial residual = 0.00176905, Final residual = 4.46265e-05, No Iterations 4
ExecutionTime = 1.37 s  ClockTime = 2 s

Time = 78

smoothSolver:  Solving for Ux, Initial residual = 0.00458362, Final residual = 0.000354029, No Iterations 2
smoothSolver:  Solving for Uy, Initial residual = 0.00312467, Final residual = 0.000306927, No Iterations 2
GAMG:  Solving for p, Initial residual = 0.0279962, Final residual = 0.00262318, No Iterations 3
time step continuity errors : sum local = 2.24436e-05, global = -1.82198e-16, cumulative = 2.82283e-15
smoothSolver:  Solving for nuTilda, Initial residual = 0.00174055, Final residual = 4.44307e-05, No Iterations 4
ExecutionTime = 1.39 s  ClockTime = 2 s

Time = 79

smoothSolver:  Solving for Ux, Initial residual = 0.00448777, Final residual = 0.000345069, No Iterations 2
smoothSolver:  Solving for Uy, Initial residual = 0.00308519, Final residual = 0.000306176, No Iterations 2
GAMG:  Solving for p, Initial residual = 0.0273273, Final residual = 0.00247409, No Iterations 3
time step continuity errors : sum local = 2.12456e-05, global = -2.6308e-16, cumulative = 2.55975e-15
smoothSolver:  Solving for nuTilda, Initial residual = 0.00171152, Final residual = 4.42209e-05, No Iterations 4
ExecutionTime = 1.4 s  ClockTime = 2 s

Time = 80

smoothSolver:  Solving for Ux, Initial residual = 0.00439544, Final residual = 0.000336205, No Iterations 2
smoothSolver:  Solving for Uy, Initial residual = 0.00304484, Final residual = 5.1756e-05, No Iterations 4
GAMG:  Solving for p, Initial residual = 0.0258667, Final residual = 0.0019497, No Iterations 5
time step continuity errors : sum local = 1.68179e-05, global = -1.342e-16, cumulative = 2.42555e-15
smoothSolver:  Solving for nuTilda, Initial residual = 0.00168142, Final residual = 4.39919e-05, No Iterations 4
ExecutionTime = 1.42 s  ClockTime = 2 s

Time = 81

smoothSolver:  Solving for Ux, Initial residual = 0.00435039, Final residual = 0.000328662, No Iterations 2
smoothSolver:  Solving for Uy, Initial residual = 0.00295448, Final residual = 0.000295269, No Iterations 2
GAMG:  Solving for p, Initial residual = 0.0235165, Final residual = 0.00113887, No Iterations 4
time step continuity errors : sum local = 9.70667e-06, global = -1.96503e-16, cumulative = 2.22904e-15
smoothSolver:  Solving for nuTilda, Initial residual = 0.00165042, Final residual = 4.37376e-05, No Iterations 4
ExecutionTime = 1.43 s  ClockTime = 2 s

Time = 82

smoothSolver:  Solving for Ux, Initial residual = 0.00427071, Final residual = 0.00032016, No Iterations 2
smoothSolver:  Solving for Uy, Initial residual = 0.00292422, Final residual = 0.000291762, No Iterations 2
GAMG:  Solving for p, Initial residual = 0.0225366, Final residual = 0.00168466, No Iterations 3
time step continuity errors : sum local = 1.44438e-05, global = 3.88707e-16, cumulative = 2.61775e-15
smoothSolver:  Solving for nuTilda, Initial residual = 0.00161926, Final residual = 4.34534e-05, No Iterations 4
ExecutionTime = 1.45 s  ClockTime = 2 s

Time = 83

smoothSolver:  Solving for Ux, Initial residual = 0.00417262, Final residual = 0.000311562, No Iterations 2
smoothSolver:  Solving for Uy, Initial residual = 0.00292454, Final residual = 4.85369e-05, No Iterations 4
GAMG:  Solving for p, Initial residual = 0.0231867, Final residual = 0.00193127, No Iterations 3
time step continuity errors : sum local = 1.65307e-05, global = 2.43774e-16, cumulative = 2.86153e-15
smoothSolver:  Solving for nuTilda, Initial residual = 0.00158738, Final residual = 4.31573e-05, No Iterations 4
ExecutionTime = 1.46 s  ClockTime = 2 s

Time = 84

smoothSolver:  Solving for Ux, Initial residual = 0.00408712, Final residual = 0.000302745, No Iterations 2
smoothSolver:  Solving for Uy, Initial residual = 0.00291268, Final residual = 0.000284464, No Iterations 2
GAMG:  Solving for p, Initial residual = 0.0210084, Final residual = 0.00193588, No Iterations 3
time step continuity errors : sum local = 1.65771e-05, global = -1.33467e-16, cumulative = 2.72806e-15
smoothSolver:  Solving for nuTilda, Initial residual = 0.00155572, Final residual = 4.28236e-05, No Iterations 4
ExecutionTime = 1.47 s  ClockTime = 2 s

Time = 85

smoothSolver:  Solving for Ux, Initial residual = 0.00399966, Final residual = 0.000294835, No Iterations 2
smoothSolver:  Solving for Uy, Initial residual = 0.00290631, Final residual = 0.000284243, No Iterations 2
GAMG:  Solving for p, Initial residual = 0.0204861, Final residual = 0.00204091, No Iterations 3
time step continuity errors : sum local = 1.75184e-05, global = -1.90588e-16, cumulative = 2.53747e-15
smoothSolver:  Solving for nuTilda, Initial residual = 0.00152395, Final residual = 4.24785e-05, No Iterations 4
ExecutionTime = 1.5 s  ClockTime = 2 s

Time = 86

smoothSolver:  Solving for Ux, Initial residual = 0.00392576, Final residual = 0.000287975, No Iterations 2
smoothSolver:  Solving for Uy, Initial residual = 0.00288601, Final residual = 0.000286987, No Iterations 2
GAMG:  Solving for p, Initial residual = 0.0195711, Final residual = 0.000669804, No Iterations 5
time step continuity errors : sum local = 5.72838e-06, global = 2.39573e-16, cumulative = 2.77704e-15
smoothSolver:  Solving for nuTilda, Initial residual = 0.00149237, Final residual = 4.21018e-05, No Iterations 4
ExecutionTime = 1.52 s  ClockTime = 2 s

Time = 87

smoothSolver:  Solving for Ux, Initial residual = 0.00388034, Final residual = 0.000282792, No Iterations 2
smoothSolver:  Solving for Uy, Initial residual = 0.00283369, Final residual = 4.70857e-05, No Iterations 4
GAMG:  Solving for p, Initial residual = 0.0209516, Final residual = 0.00122117, No Iterations 4
time step continuity errors : sum local = 1.04977e-05, global = -1.95481e-16, cumulative = 2.58156e-15
smoothSolver:  Solving for nuTilda, Initial residual = 0.00146203, Final residual = 4.17195e-05, No Iterations 4
ExecutionTime = 1.53 s  ClockTime = 2 s

Time = 88

smoothSolver:  Solving for Ux, Initial residual = 0.00384721, Final residual = 0.000277034, No Iterations 2
smoothSolver:  Solving for Uy, Initial residual = 0.00275581, Final residual = 0.000266694, No Iterations 2
GAMG:  Solving for p, Initial residual = 0.017873, Final residual = 0.00154294, No Iterations 4
time step continuity errors : sum local = 1.32787e-05, global = 8.10822e-19, cumulative = 2.58237e-15
smoothSolver:  Solving for nuTilda, Initial residual = 0.00143208, Final residual = 4.13023e-05, No Iterations 4
ExecutionTime = 1.55 s  ClockTime = 2 s

Time = 89

smoothSolver:  Solving for Ux, Initial residual = 0.00378483, Final residual = 0.000271228, No Iterations 2
smoothSolver:  Solving for Uy, Initial residual = 0.00270833, Final residual = 0.000259659, No Iterations 2
GAMG:  Solving for p, Initial residual = 0.0173374, Final residual = 0.00144956, No Iterations 3
time step continuity errors : sum local = 1.245e-05, global = 6.00502e-17, cumulative = 2.64242e-15
smoothSolver:  Solving for nuTilda, Initial residual = 0.00140304, Final residual = 4.08664e-05, No Iterations 4
ExecutionTime = 1.57 s  ClockTime = 2 s

Time = 90

smoothSolver:  Solving for Ux, Initial residual = 0.00369804, Final residual = 0.00026555, No Iterations 2
smoothSolver:  Solving for Uy, Initial residual = 0.00269441, Final residual = 0.000262284, No Iterations 2
GAMG:  Solving for p, Initial residual = 0.0172182, Final residual = 0.00157462, No Iterations 3
time step continuity errors : sum local = 1.34873e-05, global = -1.11488e-16, cumulative = 2.53094e-15
smoothSolver:  Solving for nuTilda, Initial residual = 0.00137488, Final residual = 4.03873e-05, No Iterations 4
ExecutionTime = 1.58 s  ClockTime = 2 s

Time = 91

smoothSolver:  Solving for Ux, Initial residual = 0.00360712, Final residual = 0.000260277, No Iterations 2
smoothSolver:  Solving for Uy, Initial residual = 0.00269167, Final residual = 0.000267069, No Iterations 2
GAMG:  Solving for p, Initial residual = 0.0162278, Final residual = 0.000871099, No Iterations 4
time step continuity errors : sum local = 7.40073e-06, global = -1.58536e-16, cumulative = 2.3724e-15
smoothSolver:  Solving for nuTilda, Initial residual = 0.00134774, Final residual = 3.98993e-05, No Iterations 4
ExecutionTime = 1.6 s  ClockTime = 2 s

Time = 92

smoothSolver:  Solving for Ux, Initial residual = 0.00352794, Final residual = 0.000255799, No Iterations 2
smoothSolver:  Solving for Uy, Initial residual = 0.00268225, Final residual = 0.000268195, No Iterations 2
GAMG:  Solving for p, Initial residual = 0.0154693, Final residual = 0.000590193, No Iterations 5
time step continuity errors : sum local = 5.01367e-06, global = 3.99983e-16, cumulative = 2.77238e-15
smoothSolver:  Solving for nuTilda, Initial residual = 0.00132123, Final residual = 3.93844e-05, No Iterations 4
ExecutionTime = 1.61 s  ClockTime = 2 s

Time = 93

smoothSolver:  Solving for Ux, Initial residual = 0.00347086, Final residual = 0.000252117, No Iterations 2
smoothSolver:  Solving for Uy, Initial residual = 0.00264716, Final residual = 0.000261954, No Iterations 2
GAMG:  Solving for p, Initial residual = 0.0150628, Final residual = 0.000820854, No Iterations 4
time step continuity errors : sum local = 7.06269e-06, global = -1.6123e-17, cumulative = 2.75626e-15
smoothSolver:  Solving for nuTilda, Initial residual = 0.00129645, Final residual = 3.88653e-05, No Iterations 4
ExecutionTime = 1.63 s  ClockTime = 2 s

Time = 94

smoothSolver:  Solving for Ux, Initial residual = 0.00343058, Final residual = 0.000249166, No Iterations 2
smoothSolver:  Solving for Uy, Initial residual = 0.00259709, Final residual = 0.00025282, No Iterations 2
GAMG:  Solving for p, Initial residual = 0.0141931, Final residual = 0.00132823, No Iterations 4
time step continuity errors : sum local = 1.14071e-05, global = 2.63206e-16, cumulative = 3.01947e-15
smoothSolver:  Solving for nuTilda, Initial residual = 0.00127236, Final residual = 3.83068e-05, No Iterations 4
ExecutionTime = 1.65 s  ClockTime = 2 s

Time = 95

smoothSolver:  Solving for Ux, Initial residual = 0.00338823, Final residual = 0.000246671, No Iterations 2
smoothSolver:  Solving for Uy, Initial residual = 0.0025498, Final residual = 0.000245968, No Iterations 2
GAMG:  Solving for p, Initial residual = 0.0138323, Final residual = 0.00105045, No Iterations 4
time step continuity errors : sum local = 9.10194e-06, global = 2.07396e-16, cumulative = 3.22686e-15
smoothSolver:  Solving for nuTilda, Initial residual = 0.00125013, Final residual = 3.77448e-05, No Iterations 4
ExecutionTime = 1.66 s  ClockTime = 2 s

Time = 96

smoothSolver:  Solving for Ux, Initial residual = 0.00333438, Final residual = 0.000244343, No Iterations 2
smoothSolver:  Solving for Uy, Initial residual = 0.00251337, Final residual = 0.000242385, No Iterations 2
GAMG:  Solving for p, Initial residual = 0.0135301, Final residual = 0.000774111, No Iterations 4
time step continuity errors : sum local = 6.5545e-06, global = -5.45673e-17, cumulative = 3.17229e-15
smoothSolver:  Solving for nuTilda, Initial residual = 0.00122983, Final residual = 3.71686e-05, No Iterations 4
ExecutionTime = 1.68 s  ClockTime = 2 s

Time = 97

smoothSolver:  Solving for Ux, Initial residual = 0.00326916, Final residual = 0.000242138, No Iterations 2
smoothSolver:  Solving for Uy, Initial residual = 0.00248497, Final residual = 0.000240511, No Iterations 2
GAMG:  Solving for p, Initial residual = 0.0131352, Final residual = 0.000591233, No Iterations 4
time step continuity errors : sum local = 5.00985e-06, global = -3.62471e-17, cumulative = 3.13605e-15
smoothSolver:  Solving for nuTilda, Initial residual = 0.00121122, Final residual = 3.65759e-05, No Iterations 4
ExecutionTime = 1.69 s  ClockTime = 2 s

Time = 98

smoothSolver:  Solving for Ux, Initial residual = 0.00319833, Final residual = 0.000240141, No Iterations 2
smoothSolver:  Solving for Uy, Initial residual = 0.00246037, Final residual = 0.000238769, No Iterations 2
GAMG:  Solving for p, Initial residual = 0.01247, Final residual = 0.00117647, No Iterations 3
time step continuity errors : sum local = 9.98957e-06, global = -2.86066e-18, cumulative = 3.13319e-15
smoothSolver:  Solving for nuTilda, Initial residual = 0.00119459, Final residual = 3.59625e-05, No Iterations 4
ExecutionTime = 1.71 s  ClockTime = 2 s

Time = 99

smoothSolver:  Solving for Ux, Initial residual = 0.00312878, Final residual = 0.000238319, No Iterations 2
smoothSolver:  Solving for Uy, Initial residual = 0.00243437, Final residual = 0.000235765, No Iterations 2
GAMG:  Solving for p, Initial residual = 0.0121069, Final residual = 0.00049645, No Iterations 5
time step continuity errors : sum local = 4.21032e-06, global = -1.06009e-16, cumulative = 3.02718e-15
smoothSolver:  Solving for nuTilda, Initial residual = 0.0011802, Final residual = 3.53444e-05, No Iterations 4
ExecutionTime = 1.73 s  ClockTime = 2 s

Time = 100

smoothSolver:  Solving for Ux, Initial residual = 0.00307069, Final residual = 0.000237056, No Iterations 2
smoothSolver:  Solving for Uy, Initial residual = 0.002401, Final residual = 0.000231374, No Iterations 2
GAMG:  Solving for p, Initial residual = 0.0112836, Final residual = 0.000426046, No Iterations 5
time step continuity errors : sum local = 3.60713e-06, global = 2.23596e-16, cumulative = 3.25077e-15
smoothSolver:  Solving for nuTilda, Initial residual = 0.00116673, Final residual = 3.46942e-05, No Iterations 4
ExecutionTime = 1.78 s  ClockTime = 2 s

Time = 101

smoothSolver:  Solving for Ux, Initial residual = 0.00302484, Final residual = 0.000236466, No Iterations 2
smoothSolver:  Solving for Uy, Initial residual = 0.00236805, Final residual = 0.000227147, No Iterations 2
GAMG:  Solving for p, Initial residual = 0.0110293, Final residual = 0.000841046, No Iterations 4
time step continuity errors : sum local = 7.22997e-06, global = -4.96696e-18, cumulative = 3.24581e-15
smoothSolver:  Solving for nuTilda, Initial residual = 0.00115433, Final residual = 3.40419e-05, No Iterations 4
ExecutionTime = 1.8 s  ClockTime = 2 s

Time = 102

smoothSolver:  Solving for Ux, Initial residual = 0.00298185, Final residual = 0.000235996, No Iterations 2
smoothSolver:  Solving for Uy, Initial residual = 0.00233877, Final residual = 0.000223638, No Iterations 2
GAMG:  Solving for p, Initial residual = 0.0108704, Final residual = 0.000782085, No Iterations 4
time step continuity errors : sum local = 6.71897e-06, global = -1.32713e-16, cumulative = 3.11309e-15
smoothSolver:  Solving for nuTilda, Initial residual = 0.00114305, Final residual = 3.33742e-05, No Iterations 4
ExecutionTime = 1.81 s  ClockTime = 2 s

Time = 103

smoothSolver:  Solving for Ux, Initial residual = 0.00293627, Final residual = 0.000235528, No Iterations 2
smoothSolver:  Solving for Uy, Initial residual = 0.00230868, Final residual = 0.000220235, No Iterations 2
GAMG:  Solving for p, Initial residual = 0.0109352, Final residual = 0.000693068, No Iterations 4
time step continuity errors : sum local = 5.99248e-06, global = 2.10632e-16, cumulative = 3.32373e-15
smoothSolver:  Solving for nuTilda, Initial residual = 0.00113234, Final residual = 3.27049e-05, No Iterations 4
ExecutionTime = 1.83 s  ClockTime = 2 s

Time = 104

smoothSolver:  Solving for Ux, Initial residual = 0.00288582, Final residual = 0.00023526, No Iterations 2
smoothSolver:  Solving for Uy, Initial residual = 0.0022783, Final residual = 0.000217025, No Iterations 2
GAMG:  Solving for p, Initial residual = 0.0105957, Final residual = 0.00102114, No Iterations 3
time step continuity errors : sum local = 8.67027e-06, global = -5.39758e-18, cumulative = 3.31833e-15
smoothSolver:  Solving for nuTilda, Initial residual = 0.00112186, Final residual = 3.20197e-05, No Iterations 4
ExecutionTime = 1.84 s  ClockTime = 2 s

Time = 105

smoothSolver:  Solving for Ux, Initial residual = 0.00283052, Final residual = 0.000234997, No Iterations 2
smoothSolver:  Solving for Uy, Initial residual = 0.00224912, Final residual = 0.000213744, No Iterations 2
GAMG:  Solving for p, Initial residual = 0.0104614, Final residual = 0.00088941, No Iterations 4
time step continuity errors : sum local = 7.6461e-06, global = 6.47468e-17, cumulative = 3.38307e-15
smoothSolver:  Solving for nuTilda, Initial residual = 0.00111174, Final residual = 3.13385e-05, No Iterations 4
ExecutionTime = 1.86 s  ClockTime = 2 s

Time = 106

smoothSolver:  Solving for Ux, Initial residual = 0.00278087, Final residual = 0.000235044, No Iterations 2
smoothSolver:  Solving for Uy, Initial residual = 0.00221811, Final residual = 0.000210409, No Iterations 2
GAMG:  Solving for p, Initial residual = 0.00973454, Final residual = 0.000444671, No Iterations 5
time step continuity errors : sum local = 3.74785e-06, global = -2.05388e-16, cumulative = 3.17769e-15
smoothSolver:  Solving for nuTilda, Initial residual = 0.00110086, Final residual = 3.06443e-05, No Iterations 4
ExecutionTime = 1.88 s  ClockTime = 2 s

Time = 107

smoothSolver:  Solving for Ux, Initial residual = 0.00273796, Final residual = 0.000235473, No Iterations 2
smoothSolver:  Solving for Uy, Initial residual = 0.00219078, Final residual = 0.000207505, No Iterations 2
GAMG:  Solving for p, Initial residual = 0.00920895, Final residual = 0.000884448, No Iterations 3
time step continuity errors : sum local = 7.49092e-06, global = 3.02816e-16, cumulative = 3.4805e-15
smoothSolver:  Solving for nuTilda, Initial residual = 0.00109004, Final residual = 2.99517e-05, No Iterations 4
ExecutionTime = 1.89 s  ClockTime = 2 s

Time = 108

smoothSolver:  Solving for Ux, Initial residual = 0.00269434, Final residual = 0.00023581, No Iterations 2
smoothSolver:  Solving for Uy, Initial residual = 0.00217206, Final residual = 0.00020526, No Iterations 2
GAMG:  Solving for p, Initial residual = 0.00903552, Final residual = 0.000747292, No Iterations 4
time step continuity errors : sum local = 6.3724e-06, global = -1.70719e-16, cumulative = 3.30978e-15
smoothSolver:  Solving for nuTilda, Initial residual = 0.00107916, Final residual = 2.92567e-05, No Iterations 4
ExecutionTime = 1.91 s  ClockTime = 2 s

Time = 109

smoothSolver:  Solving for Ux, Initial residual = 0.00266433, Final residual = 0.00023639, No Iterations 2
smoothSolver:  Solving for Uy, Initial residual = 0.00214975, Final residual = 0.00020272, No Iterations 2
GAMG:  Solving for p, Initial residual = 0.00921195, Final residual = 0.000598373, No Iterations 4
time step continuity errors : sum local = 5.13829e-06, global = 3.55194e-16, cumulative = 3.66498e-15
smoothSolver:  Solving for nuTilda, Initial residual = 0.00106816, Final residual = 2.85741e-05, No Iterations 4
ExecutionTime = 1.93 s  ClockTime = 2 s

Time = 110

smoothSolver:  Solving for Ux, Initial residual = 0.00263808, Final residual = 0.000237136, No Iterations 2
smoothSolver:  Solving for Uy, Initial residual = 0.00212662, Final residual = 0.000199882, No Iterations 2
GAMG:  Solving for p, Initial residual = 0.00903312, Final residual = 0.000577237, No Iterations 4
time step continuity errors : sum local = 4.9412e-06, global = 1.65316e-17, cumulative = 3.68151e-15
smoothSolver:  Solving for nuTilda, Initial residual = 0.001057, Final residual = 2.7894e-05, No Iterations 4
ExecutionTime = 1.94 s  ClockTime = 2 s

Time = 111

smoothSolver:  Solving for Ux, Initial residual = 0.00261246, Final residual = 0.000237975, No Iterations 2
smoothSolver:  Solving for Uy, Initial residual = 0.00210422, Final residual = 0.000196927, No Iterations 2
GAMG:  Solving for p, Initial residual = 0.00881558, Final residual = 0.000824261, No Iterations 3
time step continuity errors : sum local = 6.96292e-06, global = -3.73328e-16, cumulative = 3.30818e-15
smoothSolver:  Solving for nuTilda, Initial residual = 0.00104575, Final residual = 2.72319e-05, No Iterations 4
ExecutionTime = 1.95 s  ClockTime = 2 s

Time = 112

smoothSolver:  Solving for Ux, Initial residual = 0.00258288, Final residual = 0.000238935, No Iterations 2
smoothSolver:  Solving for Uy, Initial residual = 0.00208644, Final residual = 0.000194392, No Iterations 2
GAMG:  Solving for p, Initial residual = 0.00851569, Final residual = 0.000736149, No Iterations 4
time step continuity errors : sum local = 6.24975e-06, global = -8.70007e-17, cumulative = 3.22118e-15
smoothSolver:  Solving for nuTilda, Initial residual = 0.00103456, Final residual = 2.65776e-05, No Iterations 4
ExecutionTime = 1.97 s  ClockTime = 2 s

Time = 113

smoothSolver:  Solving for Ux, Initial residual = 0.00256374, Final residual = 0.000240316, No Iterations 2
smoothSolver:  Solving for Uy, Initial residual = 0.00206516, Final residual = 0.000191559, No Iterations 2
GAMG:  Solving for p, Initial residual = 0.00819703, Final residual = 0.000360574, No Iterations 5
time step continuity errors : sum local = 3.02351e-06, global = -7.94052e-17, cumulative = 3.14178e-15
smoothSolver:  Solving for nuTilda, Initial residual = 0.00102324, Final residual = 2.59375e-05, No Iterations 4
ExecutionTime = 1.99 s  ClockTime = 2 s

Time = 114

smoothSolver:  Solving for Ux, Initial residual = 0.00254677, Final residual = 0.000241721, No Iterations 2
smoothSolver:  Solving for Uy, Initial residual = 0.00204254, Final residual = 0.000188732, No Iterations 2
GAMG:  Solving for p, Initial residual = 0.00761671, Final residual = 0.000308443, No Iterations 5
time step continuity errors : sum local = 2.57515e-06, global = -7.66142e-17, cumulative = 3.06516e-15
smoothSolver:  Solving for nuTilda, Initial residual = 0.00101192, Final residual = 2.53006e-05, No Iterations 4
ExecutionTime = 2 s  ClockTime = 2 s

Time = 115

smoothSolver:  Solving for Ux, Initial residual = 0.00252624, Final residual = 0.000242661, No Iterations 2
smoothSolver:  Solving for Uy, Initial residual = 0.00202179, Final residual = 0.000185963, No Iterations 2
GAMG:  Solving for p, Initial residual = 0.00743724, Final residual = 0.000667659, No Iterations 3
time step continuity errors : sum local = 5.59757e-06, global = -2.91924e-16, cumulative = 2.77324e-15
smoothSolver:  Solving for nuTilda, Initial residual = 0.0010004, Final residual = 2.46813e-05, No Iterations 4
ExecutionTime = 2.02 s  ClockTime = 2 s

Time = 116

smoothSolver:  Solving for Ux, Initial residual = 0.00249914, Final residual = 0.000243072, No Iterations 2
smoothSolver:  Solving for Uy, Initial residual = 0.00200793, Final residual = 0.000183877, No Iterations 2
GAMG:  Solving for p, Initial residual = 0.00756493, Final residual = 0.000618547, No Iterations 4
time step continuity errors : sum local = 5.20316e-06, global = -4.24526e-17, cumulative = 2.73078e-15
smoothSolver:  Solving for nuTilda, Initial residual = 0.000988672, Final residual = 2.40694e-05, No Iterations 4
ExecutionTime = 2.04 s  ClockTime = 2 s

Time = 117

smoothSolver:  Solving for Ux, Initial residual = 0.00248793, Final residual = 0.000243756, No Iterations 2
smoothSolver:  Solving for Uy, Initial residual = 0.00199182, Final residual = 0.0001814, No Iterations 2
GAMG:  Solving for p, Initial residual = 0.0076465, Final residual = 0.000762899, No Iterations 3
time step continuity errors : sum local = 6.38366e-06, global = 2.71282e-16, cumulative = 3.00207e-15
smoothSolver:  Solving for nuTilda, Initial residual = 0.000976638, Final residual = 2.34728e-05, No Iterations 4
ExecutionTime = 2.05 s  ClockTime = 2 s

Time = 118

smoothSolver:  Solving for Ux, Initial residual = 0.00247208, Final residual = 0.000244153, No Iterations 2
smoothSolver:  Solving for Uy, Initial residual = 0.00197845, Final residual = 0.000179057, No Iterations 2
GAMG:  Solving for p, Initial residual = 0.00747252, Final residual = 0.000738534, No Iterations 4
time step continuity errors : sum local = 6.19008e-06, global = 3.20988e-17, cumulative = 3.03416e-15
smoothSolver:  Solving for nuTilda, Initial residual = 0.00096451, Final residual = 2.28827e-05, No Iterations 4
ExecutionTime = 2.07 s  ClockTime = 2 s

Time = 119

smoothSolver:  Solving for Ux, Initial residual = 0.00246321, Final residual = 0.000244625, No Iterations 2
smoothSolver:  Solving for Uy, Initial residual = 0.00196023, Final residual = 0.000176194, No Iterations 2
GAMG:  Solving for p, Initial residual = 0.00714031, Final residual = 0.000455221, No Iterations 5
time step continuity errors : sum local = 3.83929e-06, global = 8.08463e-17, cumulative = 3.11501e-15
smoothSolver:  Solving for nuTilda, Initial residual = 0.000951888, Final residual = 2.23145e-05, No Iterations 4
ExecutionTime = 2.09 s  ClockTime = 2 s

Time = 120

smoothSolver:  Solving for Ux, Initial residual = 0.00244796, Final residual = 0.000244739, No Iterations 2
smoothSolver:  Solving for Uy, Initial residual = 0.0019388, Final residual = 0.00017332, No Iterations 2
GAMG:  Solving for p, Initial residual = 0.00655163, Final residual = 0.000647672, No Iterations 3
time step continuity errors : sum local = 5.39076e-06, global = -3.38378e-16, cumulative = 2.77663e-15
smoothSolver:  Solving for nuTilda, Initial residual = 0.000939088, Final residual = 2.1749e-05, No Iterations 4
ExecutionTime = 2.1 s  ClockTime = 2 s

Time = 121

smoothSolver:  Solving for Ux, Initial residual = 0.00241364, Final residual = 3.91233e-05, No Iterations 4
smoothSolver:  Solving for Uy, Initial residual = 0.00192413, Final residual = 0.000171063, No Iterations 2
GAMG:  Solving for p, Initial residual = 0.00655367, Final residual = 0.000297843, No Iterations 4
time step continuity errors : sum local = 2.51067e-06, global = 1.13723e-16, cumulative = 2.89036e-15
smoothSolver:  Solving for nuTilda, Initial residual = 0.000926143, Final residual = 2.12026e-05, No Iterations 4
ExecutionTime = 2.11 s  ClockTime = 2 s

Time = 122

smoothSolver:  Solving for Ux, Initial residual = 0.00238067, Final residual = 3.87527e-05, No Iterations 4
smoothSolver:  Solving for Uy, Initial residual = 0.00191009, Final residual = 0.000169368, No Iterations 2
GAMG:  Solving for p, Initial residual = 0.00638533, Final residual = 0.000302328, No Iterations 4
time step continuity errors : sum local = 2.53841e-06, global = -1.63582e-16, cumulative = 2.72677e-15
smoothSolver:  Solving for nuTilda, Initial residual = 0.000912772, Final residual = 2.0666e-05, No Iterations 4
ExecutionTime = 2.14 s  ClockTime = 2 s

Time = 123

smoothSolver:  Solving for Ux, Initial residual = 0.0023551, Final residual = 3.83924e-05, No Iterations 4
smoothSolver:  Solving for Uy, Initial residual = 0.00189433, Final residual = 0.000167333, No Iterations 2
GAMG:  Solving for p, Initial residual = 0.00654039, Final residual = 0.000319991, No Iterations 4
time step continuity errors : sum local = 2.68595e-06, global = -5.96148e-16, cumulative = 2.13063e-15
smoothSolver:  Solving for nuTilda, Initial residual = 0.000899295, Final residual = 2.01506e-05, No Iterations 4
ExecutionTime = 2.15 s  ClockTime = 2 s

Time = 124

smoothSolver:  Solving for Ux, Initial residual = 0.00233774, Final residual = 3.803e-05, No Iterations 4
smoothSolver:  Solving for Uy, Initial residual = 0.0018757, Final residual = 0.000164878, No Iterations 2
GAMG:  Solving for p, Initial residual = 0.00647048, Final residual = 0.00032972, No Iterations 4
time step continuity errors : sum local = 2.75002e-06, global = 1.12955e-16, cumulative = 2.24358e-15
smoothSolver:  Solving for nuTilda, Initial residual = 0.000885852, Final residual = 1.96422e-05, No Iterations 4
ExecutionTime = 2.17 s  ClockTime = 2 s

Time = 125

smoothSolver:  Solving for Ux, Initial residual = 0.00232091, Final residual = 3.76455e-05, No Iterations 4
smoothSolver:  Solving for Uy, Initial residual = 0.00185466, Final residual = 0.000161898, No Iterations 2
GAMG:  Solving for p, Initial residual = 0.00644804, Final residual = 0.000322781, No Iterations 4
time step continuity errors : sum local = 2.69172e-06, global = 2.4591e-16, cumulative = 2.48949e-15
smoothSolver:  Solving for nuTilda, Initial residual = 0.000872627, Final residual = 1.91548e-05, No Iterations 4
ExecutionTime = 2.19 s  ClockTime = 2 s

Time = 126

smoothSolver:  Solving for Ux, Initial residual = 0.00229889, Final residual = 3.71873e-05, No Iterations 4
smoothSolver:  Solving for Uy, Initial residual = 0.00183273, Final residual = 0.000159017, No Iterations 2
GAMG:  Solving for p, Initial residual = 0.00604361, Final residual = 0.000308511, No Iterations 4
time step continuity errors : sum local = 2.55871e-06, global = 4.01346e-16, cumulative = 2.89084e-15
smoothSolver:  Solving for nuTilda, Initial residual = 0.000859011, Final residual = 1.86757e-05, No Iterations 4
ExecutionTime = 2.2 s  ClockTime = 2 s

Time = 127

smoothSolver:  Solving for Ux, Initial residual = 0.00226989, Final residual = 3.66372e-05, No Iterations 4
smoothSolver:  Solving for Uy, Initial residual = 0.00180968, Final residual = 0.000156497, No Iterations 2
GAMG:  Solving for p, Initial residual = 0.00598994, Final residual = 0.000293564, No Iterations 4
time step continuity errors : sum local = 2.43586e-06, global = 2.35217e-16, cumulative = 3.12606e-15
smoothSolver:  Solving for nuTilda, Initial residual = 0.000845385, Final residual = 1.82153e-05, No Iterations 4
ExecutionTime = 2.22 s  ClockTime = 2 s

Time = 128

smoothSolver:  Solving for Ux, Initial residual = 0.0022387, Final residual = 3.60069e-05, No Iterations 4
smoothSolver:  Solving for Uy, Initial residual = 0.00178572, Final residual = 0.000154162, No Iterations 2
GAMG:  Solving for p, Initial residual = 0.00570513, Final residual = 0.000486084, No Iterations 4
time step continuity errors : sum local = 4.05753e-06, global = 3.25135e-17, cumulative = 3.15857e-15
smoothSolver:  Solving for nuTilda, Initial residual = 0.000831712, Final residual = 1.77645e-05, No Iterations 4
ExecutionTime = 2.24 s  ClockTime = 2 s

Time = 129

smoothSolver:  Solving for Ux, Initial residual = 0.00220958, Final residual = 3.5324e-05, No Iterations 4
smoothSolver:  Solving for Uy, Initial residual = 0.0017585, Final residual = 0.000151506, No Iterations 2
GAMG:  Solving for p, Initial residual = 0.00574231, Final residual = 0.000272727, No Iterations 4
time step continuity errors : sum local = 2.25914e-06, global = -2.66995e-16, cumulative = 2.89157e-15
smoothSolver:  Solving for nuTilda, Initial residual = 0.000817787, Final residual = 1.73275e-05, No Iterations 4
ExecutionTime = 2.26 s  ClockTime = 2 s

Time = 130

smoothSolver:  Solving for Ux, Initial residual = 0.00217935, Final residual = 3.46038e-05, No Iterations 4
smoothSolver:  Solving for Uy, Initial residual = 0.00173492, Final residual = 0.000149135, No Iterations 2
GAMG:  Solving for p, Initial residual = 0.00554059, Final residual = 0.000463629, No Iterations 4
time step continuity errors : sum local = 3.85802e-06, global = -2.00388e-17, cumulative = 2.87153e-15
smoothSolver:  Solving for nuTilda, Initial residual = 0.000803667, Final residual = 1.68979e-05, No Iterations 4
ExecutionTime = 2.27 s  ClockTime = 2 s

Time = 131

smoothSolver:  Solving for Ux, Initial residual = 0.00215074, Final residual = 3.38532e-05, No Iterations 4
smoothSolver:  Solving for Uy, Initial residual = 0.00171042, Final residual = 0.000146647, No Iterations 2
GAMG:  Solving for p, Initial residual = 0.00561579, Final residual = 0.000456965, No Iterations 4
time step continuity errors : sum local = 3.81548e-06, global = -1.30591e-16, cumulative = 2.74094e-15
smoothSolver:  Solving for nuTilda, Initial residual = 0.000789669, Final residual = 1.64859e-05, No Iterations 4
ExecutionTime = 2.29 s  ClockTime = 2 s

Time = 132

smoothSolver:  Solving for Ux, Initial residual = 0.00212021, Final residual = 3.30646e-05, No Iterations 4
smoothSolver:  Solving for Uy, Initial residual = 0.00168706, Final residual = 0.000144254, No Iterations 2
GAMG:  Solving for p, Initial residual = 0.00534249, Final residual = 0.000445161, No Iterations 4
time step continuity errors : sum local = 3.70304e-06, global = -1.18464e-16, cumulative = 2.62248e-15
smoothSolver:  Solving for nuTilda, Initial residual = 0.00077556, Final residual = 1.60801e-05, No Iterations 4
ExecutionTime = 2.3 s  ClockTime = 2 s

Time = 133

smoothSolver:  Solving for Ux, Initial residual = 0.00208669, Final residual = 3.22301e-05, No Iterations 4
smoothSolver:  Solving for Uy, Initial residual = 0.00166292, Final residual = 0.000141833, No Iterations 2
GAMG:  Solving for p, Initial residual = 0.00540405, Final residual = 0.00043825, No Iterations 4
time step continuity errors : sum local = 3.65221e-06, global = 1.36893e-16, cumulative = 2.75937e-15
smoothSolver:  Solving for nuTilda, Initial residual = 0.000761371, Final residual = 1.56889e-05, No Iterations 4
ExecutionTime = 2.32 s  ClockTime = 2 s

[...]

Time = 967

smoothSolver:  Solving for Ux, Initial residual = 1.30675e-06, Final residual = 6.69985e-08, No Iterations 2
smoothSolver:  Solving for Uy, Initial residual = 1.10365e-06, Final residual = 9.35208e-08, No Iterations 2
GAMG:  Solving for p, Initial residual = 0.000715158, Final residual = 2.4731e-05, No Iterations 2
time step continuity errors : sum local = 2.08377e-07, global = -2.33744e-17, cumulative = 4.77793e-15
smoothSolver:  Solving for nuTilda, Initial residual = 2.70563e-07, Final residual = 8.32626e-09, No Iterations 2
ExecutionTime = 15.32 s  ClockTime = 15 s

Time = 968

smoothSolver:  Solving for Ux, Initial residual = 1.38935e-06, Final residual = 6.74202e-08, No Iterations 2
smoothSolver:  Solving for Uy, Initial residual = 1.1043e-06, Final residual = 9.29734e-08, No Iterations 2
GAMG:  Solving for p, Initial residual = 0.000698332, Final residual = 2.47162e-05, No Iterations 2
time step continuity errors : sum local = 2.05845e-07, global = -4.20191e-16, cumulative = 4.35774e-15
smoothSolver:  Solving for nuTilda, Initial residual = 3.52458e-07, Final residual = 7.64606e-09, No Iterations 2
ExecutionTime = 15.33 s  ClockTime = 15 s

Time = 969

smoothSolver:  Solving for Ux, Initial residual = 1.30675e-06, Final residual = 6.69985e-08, No Iterations 2
smoothSolver:  Solving for Uy, Initial residual = 1.10365e-06, Final residual = 9.35208e-08, No Iterations 2
GAMG:  Solving for p, Initial residual = 0.000715158, Final residual = 2.47309e-05, No Iterations 2
time step continuity errors : sum local = 2.08375e-07, global = 4.4079e-16, cumulative = 4.79853e-15
smoothSolver:  Solving for nuTilda, Initial residual = 2.70563e-07, Final residual = 8.32623e-09, No Iterations 2
ExecutionTime = 15.34 s  ClockTime = 16 s

Time = 970

smoothSolver:  Solving for Ux, Initial residual = 1.38935e-06, Final residual = 6.74202e-08, No Iterations 2
smoothSolver:  Solving for Uy, Initial residual = 1.1043e-06, Final residual = 9.29734e-08, No Iterations 2
GAMG:  Solving for p, Initial residual = 0.000698332, Final residual = 2.47163e-05, No Iterations 2
time step continuity errors : sum local = 2.05847e-07, global = -1.78236e-16, cumulative = 4.6203e-15
smoothSolver:  Solving for nuTilda, Initial residual = 3.52458e-07, Final residual = 7.646e-09, No Iterations 2
ExecutionTime = 15.36 s  ClockTime = 16 s

Time = 971

smoothSolver:  Solving for Ux, Initial residual = 1.30675e-06, Final residual = 6.69985e-08, No Iterations 2
smoothSolver:  Solving for Uy, Initial residual = 1.10365e-06, Final residual = 9.35209e-08, No Iterations 2
GAMG:  Solving for p, Initial residual = 0.000715158, Final residual = 2.47309e-05, No Iterations 2
time step continuity errors : sum local = 2.08372e-07, global = 1.31868e-16, cumulative = 4.75216e-15
smoothSolver:  Solving for nuTilda, Initial residual = 2.70563e-07, Final residual = 8.32618e-09, No Iterations 2
ExecutionTime = 15.37 s  ClockTime = 16 s

Time = 972

smoothSolver:  Solving for Ux, Initial residual = 1.38935e-06, Final residual = 6.74201e-08, No Iterations 2
smoothSolver:  Solving for Uy, Initial residual = 1.1043e-06, Final residual = 9.29733e-08, No Iterations 2
GAMG:  Solving for p, Initial residual = 0.000698332, Final residual = 2.47163e-05, No Iterations 2
time step continuity errors : sum local = 2.05849e-07, global = 2.33489e-16, cumulative = 4.98565e-15
smoothSolver:  Solving for nuTilda, Initial residual = 3.52458e-07, Final residual = 7.64595e-09, No Iterations 2
ExecutionTime = 15.39 s  ClockTime = 16 s

Time = 973

smoothSolver:  Solving for Ux, Initial residual = 1.30676e-06, Final residual = 6.69986e-08, No Iterations 2
smoothSolver:  Solving for Uy, Initial residual = 1.10366e-06, Final residual = 9.3521e-08, No Iterations 2
GAMG:  Solving for p, Initial residual = 0.000715158, Final residual = 2.47308e-05, No Iterations 2
time step continuity errors : sum local = 2.0837e-07, global = -3.71707e-16, cumulative = 4.61395e-15
smoothSolver:  Solving for nuTilda, Initial residual = 2.70563e-07, Final residual = 8.32614e-09, No Iterations 2
ExecutionTime = 15.4 s  ClockTime = 16 s

Time = 974

smoothSolver:  Solving for Ux, Initial residual = 1.38935e-06, Final residual = 6.74201e-08, No Iterations 2
smoothSolver:  Solving for Uy, Initial residual = 1.1043e-06, Final residual = 9.29732e-08, No Iterations 2
GAMG:  Solving for p, Initial residual = 0.000698332, Final residual = 2.47162e-05, No Iterations 2
time step continuity errors : sum local = 2.0585e-07, global = 1.94667e-17, cumulative = 4.63341e-15
smoothSolver:  Solving for nuTilda, Initial residual = 3.52457e-07, Final residual = 7.64589e-09, No Iterations 2
ExecutionTime = 15.42 s  ClockTime = 16 s

Time = 975

smoothSolver:  Solving for Ux, Initial residual = 1.30676e-06, Final residual = 6.69987e-08, No Iterations 2
smoothSolver:  Solving for Uy, Initial residual = 1.10366e-06, Final residual = 9.3521e-08, No Iterations 2
GAMG:  Solving for p, Initial residual = 0.000715158, Final residual = 2.47307e-05, No Iterations 2
time step continuity errors : sum local = 2.08368e-07, global = 5.10409e-16, cumulative = 5.14382e-15
smoothSolver:  Solving for nuTilda, Initial residual = 2.70563e-07, Final residual = 8.32609e-09, No Iterations 2
ExecutionTime = 15.43 s  ClockTime = 16 s

Time = 976

smoothSolver:  Solving for Ux, Initial residual = 1.38935e-06, Final residual = 6.742e-08, No Iterations 2
smoothSolver:  Solving for Uy, Initial residual = 1.1043e-06, Final residual = 9.29732e-08, No Iterations 2
GAMG:  Solving for p, Initial residual = 0.000698332, Final residual = 2.47162e-05, No Iterations 2
time step continuity errors : sum local = 2.05852e-07, global = 9.44349e-17, cumulative = 5.23826e-15
smoothSolver:  Solving for nuTilda, Initial residual = 3.52457e-07, Final residual = 7.64583e-09, No Iterations 2
ExecutionTime = 15.44 s  ClockTime = 16 s

Time = 977

smoothSolver:  Solving for Ux, Initial residual = 1.30676e-06, Final residual = 6.69986e-08, No Iterations 2
smoothSolver:  Solving for Uy, Initial residual = 1.10366e-06, Final residual = 9.3521e-08, No Iterations 2
GAMG:  Solving for p, Initial residual = 0.000715158, Final residual = 2.47307e-05, No Iterations 2
time step continuity errors : sum local = 2.08366e-07, global = -8.49692e-17, cumulative = 5.15329e-15
smoothSolver:  Solving for nuTilda, Initial residual = 2.70562e-07, Final residual = 8.32604e-09, No Iterations 2
ExecutionTime = 15.46 s  ClockTime = 16 s

Time = 978

smoothSolver:  Solving for Ux, Initial residual = 1.38935e-06, Final residual = 6.74201e-08, No Iterations 2
smoothSolver:  Solving for Uy, Initial residual = 1.1043e-06, Final residual = 9.29732e-08, No Iterations 2
GAMG:  Solving for p, Initial residual = 0.000698331, Final residual = 2.47161e-05, No Iterations 2
time step continuity errors : sum local = 2.05853e-07, global = -1.50925e-16, cumulative = 5.00236e-15
smoothSolver:  Solving for nuTilda, Initial residual = 3.52457e-07, Final residual = 7.64577e-09, No Iterations 2
ExecutionTime = 15.48 s  ClockTime = 16 s

Time = 979

smoothSolver:  Solving for Ux, Initial residual = 1.30675e-06, Final residual = 6.69985e-08, No Iterations 2
smoothSolver:  Solving for Uy, Initial residual = 1.10366e-06, Final residual = 9.35211e-08, No Iterations 2
GAMG:  Solving for p, Initial residual = 0.000715158, Final residual = 2.47306e-05, No Iterations 2
time step continuity errors : sum local = 2.08364e-07, global = -9.56011e-17, cumulative = 4.90676e-15
smoothSolver:  Solving for nuTilda, Initial residual = 2.70562e-07, Final residual = 8.32599e-09, No Iterations 2
ExecutionTime = 15.49 s  ClockTime = 16 s

Time = 980

smoothSolver:  Solving for Ux, Initial residual = 1.38935e-06, Final residual = 6.74202e-08, No Iterations 2
smoothSolver:  Solving for Uy, Initial residual = 1.1043e-06, Final residual = 9.29731e-08, No Iterations 2
GAMG:  Solving for p, Initial residual = 0.000698331, Final residual = 2.47161e-05, No Iterations 2
time step continuity errors : sum local = 2.05855e-07, global = 1.12424e-16, cumulative = 5.01918e-15
smoothSolver:  Solving for nuTilda, Initial residual = 3.52457e-07, Final residual = 7.64572e-09, No Iterations 2
ExecutionTime = 15.5 s  ClockTime = 16 s

Time = 981

smoothSolver:  Solving for Ux, Initial residual = 1.30675e-06, Final residual = 6.69984e-08, No Iterations 2
smoothSolver:  Solving for Uy, Initial residual = 1.10366e-06, Final residual = 9.35211e-08, No Iterations 2
GAMG:  Solving for p, Initial residual = 0.000715158, Final residual = 2.47306e-05, No Iterations 2
time step continuity errors : sum local = 2.08361e-07, global = 2.39637e-16, cumulative = 5.25882e-15
smoothSolver:  Solving for nuTilda, Initial residual = 2.70562e-07, Final residual = 8.32594e-09, No Iterations 2
ExecutionTime = 15.52 s  ClockTime = 16 s

Time = 982

smoothSolver:  Solving for Ux, Initial residual = 1.38935e-06, Final residual = 6.74203e-08, No Iterations 2
smoothSolver:  Solving for Uy, Initial residual = 1.1043e-06, Final residual = 9.2973e-08, No Iterations 2
GAMG:  Solving for p, Initial residual = 0.000698331, Final residual = 2.47161e-05, No Iterations 2
time step continuity errors : sum local = 2.05856e-07, global = -2.42785e-16, cumulative = 5.01604e-15
smoothSolver:  Solving for nuTilda, Initial residual = 3.52456e-07, Final residual = 7.64566e-09, No Iterations 2
ExecutionTime = 15.53 s  ClockTime = 16 s

Time = 983

smoothSolver:  Solving for Ux, Initial residual = 1.30675e-06, Final residual = 6.69983e-08, No Iterations 2
smoothSolver:  Solving for Uy, Initial residual = 1.10366e-06, Final residual = 9.35212e-08, No Iterations 2
GAMG:  Solving for p, Initial residual = 0.000715158, Final residual = 2.47305e-05, No Iterations 2
time step continuity errors : sum local = 2.08359e-07, global = -2.23413e-16, cumulative = 4.79262e-15
smoothSolver:  Solving for nuTilda, Initial residual = 2.70562e-07, Final residual = 8.32589e-09, No Iterations 2
ExecutionTime = 15.55 s  ClockTime = 16 s

Time = 984

smoothSolver:  Solving for Ux, Initial residual = 1.38935e-06, Final residual = 6.74204e-08, No Iterations 2
smoothSolver:  Solving for Uy, Initial residual = 1.1043e-06, Final residual = 9.2973e-08, No Iterations 2
GAMG:  Solving for p, Initial residual = 0.000698331, Final residual = 2.47161e-05, No Iterations 2
time step continuity errors : sum local = 2.05858e-07, global = -2.38261e-16, cumulative = 4.55436e-15
smoothSolver:  Solving for nuTilda, Initial residual = 3.52456e-07, Final residual = 7.6456e-09, No Iterations 2
ExecutionTime = 15.56 s  ClockTime = 16 s

Time = 985

smoothSolver:  Solving for Ux, Initial residual = 1.30675e-06, Final residual = 6.69983e-08, No Iterations 2
smoothSolver:  Solving for Uy, Initial residual = 1.10366e-06, Final residual = 9.35213e-08, No Iterations 2
GAMG:  Solving for p, Initial residual = 0.000715158, Final residual = 2.47304e-05, No Iterations 2
time step continuity errors : sum local = 2.08357e-07, global = 4.8241e-17, cumulative = 4.6026e-15
smoothSolver:  Solving for nuTilda, Initial residual = 2.70561e-07, Final residual = 8.32584e-09, No Iterations 2
ExecutionTime = 15.58 s  ClockTime = 16 s

Time = 986

smoothSolver:  Solving for Ux, Initial residual = 1.38935e-06, Final residual = 6.74203e-08, No Iterations 2
smoothSolver:  Solving for Uy, Initial residual = 1.1043e-06, Final residual = 9.29729e-08, No Iterations 2
GAMG:  Solving for p, Initial residual = 0.000698331, Final residual = 2.47162e-05, No Iterations 2
time step continuity errors : sum local = 2.0586e-07, global = 2.05058e-16, cumulative = 4.80766e-15
smoothSolver:  Solving for nuTilda, Initial residual = 3.52456e-07, Final residual = 7.64555e-09, No Iterations 2
ExecutionTime = 15.59 s  ClockTime = 16 s

Time = 987

smoothSolver:  Solving for Ux, Initial residual = 1.30675e-06, Final residual = 6.69984e-08, No Iterations 2
smoothSolver:  Solving for Uy, Initial residual = 1.10366e-06, Final residual = 9.35213e-08, No Iterations 2
GAMG:  Solving for p, Initial residual = 0.000715158, Final residual = 2.47303e-05, No Iterations 2
time step continuity errors : sum local = 2.08355e-07, global = 8.92691e-18, cumulative = 4.81659e-15
smoothSolver:  Solving for nuTilda, Initial residual = 2.70561e-07, Final residual = 8.32579e-09, No Iterations 2
ExecutionTime = 15.6 s  ClockTime = 16 s

Time = 988

smoothSolver:  Solving for Ux, Initial residual = 1.38935e-06, Final residual = 6.74202e-08, No Iterations 2
smoothSolver:  Solving for Uy, Initial residual = 1.1043e-06, Final residual = 9.29728e-08, No Iterations 2
GAMG:  Solving for p, Initial residual = 0.000698331, Final residual = 2.47161e-05, No Iterations 2
time step continuity errors : sum local = 2.05862e-07, global = 9.39537e-17, cumulative = 4.91054e-15
smoothSolver:  Solving for nuTilda, Initial residual = 3.52456e-07, Final residual = 7.64549e-09, No Iterations 2
ExecutionTime = 15.62 s  ClockTime = 16 s

Time = 989

smoothSolver:  Solving for Ux, Initial residual = 1.30675e-06, Final residual = 6.69984e-08, No Iterations 2
smoothSolver:  Solving for Uy, Initial residual = 1.10366e-06, Final residual = 9.35214e-08, No Iterations 2
GAMG:  Solving for p, Initial residual = 0.000715158, Final residual = 2.47303e-05, No Iterations 2
time step continuity errors : sum local = 2.08352e-07, global = -5.36891e-16, cumulative = 4.37365e-15
smoothSolver:  Solving for nuTilda, Initial residual = 2.70561e-07, Final residual = 8.32574e-09, No Iterations 2
ExecutionTime = 15.63 s  ClockTime = 16 s

Time = 990

smoothSolver:  Solving for Ux, Initial residual = 1.38935e-06, Final residual = 6.74202e-08, No Iterations 2
smoothSolver:  Solving for Uy, Initial residual = 1.1043e-06, Final residual = 9.29728e-08, No Iterations 2
GAMG:  Solving for p, Initial residual = 0.000698331, Final residual = 2.47161e-05, No Iterations 2
time step continuity errors : sum local = 2.05863e-07, global = -1.42345e-16, cumulative = 4.23131e-15
smoothSolver:  Solving for nuTilda, Initial residual = 3.52455e-07, Final residual = 7.64544e-09, No Iterations 2
ExecutionTime = 15.65 s  ClockTime = 16 s

Time = 991

smoothSolver:  Solving for Ux, Initial residual = 1.30675e-06, Final residual = 6.69984e-08, No Iterations 2
smoothSolver:  Solving for Uy, Initial residual = 1.10366e-06, Final residual = 9.35215e-08, No Iterations 2
GAMG:  Solving for p, Initial residual = 0.000715158, Final residual = 2.47302e-05, No Iterations 2
time step continuity errors : sum local = 2.0835e-07, global = 1.52445e-16, cumulative = 4.38375e-15
smoothSolver:  Solving for nuTilda, Initial residual = 2.7056e-07, Final residual = 8.32569e-09, No Iterations 2
ExecutionTime = 15.66 s  ClockTime = 16 s

Time = 992

smoothSolver:  Solving for Ux, Initial residual = 1.38935e-06, Final residual = 6.74202e-08, No Iterations 2
smoothSolver:  Solving for Uy, Initial residual = 1.10429e-06, Final residual = 9.29727e-08, No Iterations 2
GAMG:  Solving for p, Initial residual = 0.000698331, Final residual = 2.47161e-05, No Iterations 2
time step continuity errors : sum local = 2.05864e-07, global = -1.74652e-16, cumulative = 4.2091e-15
smoothSolver:  Solving for nuTilda, Initial residual = 3.52455e-07, Final residual = 7.64539e-09, No Iterations 2
ExecutionTime = 15.68 s  ClockTime = 16 s

Time = 993

smoothSolver:  Solving for Ux, Initial residual = 1.30675e-06, Final residual = 6.69983e-08, No Iterations 2
smoothSolver:  Solving for Uy, Initial residual = 1.10366e-06, Final residual = 9.35215e-08, No Iterations 2
GAMG:  Solving for p, Initial residual = 0.000715158, Final residual = 2.47302e-05, No Iterations 2
time step continuity errors : sum local = 2.08348e-07, global = -9.58285e-17, cumulative = 4.11327e-15
smoothSolver:  Solving for nuTilda, Initial residual = 2.7056e-07, Final residual = 8.32565e-09, No Iterations 2
ExecutionTime = 15.69 s  ClockTime = 16 s

Time = 994

smoothSolver:  Solving for Ux, Initial residual = 1.38935e-06, Final residual = 6.74203e-08, No Iterations 2
smoothSolver:  Solving for Uy, Initial residual = 1.10429e-06, Final residual = 9.29727e-08, No Iterations 2
GAMG:  Solving for p, Initial residual = 0.000698331, Final residual = 2.4716e-05, No Iterations 2
time step continuity errors : sum local = 2.05866e-07, global = 3.28188e-18, cumulative = 4.11655e-15
smoothSolver:  Solving for nuTilda, Initial residual = 3.52455e-07, Final residual = 7.64534e-09, No Iterations 2
ExecutionTime = 15.71 s  ClockTime = 16 s

Time = 995

smoothSolver:  Solving for Ux, Initial residual = 1.30675e-06, Final residual = 6.69982e-08, No Iterations 2
smoothSolver:  Solving for Uy, Initial residual = 1.10366e-06, Final residual = 9.35216e-08, No Iterations 2
GAMG:  Solving for p, Initial residual = 0.000715157, Final residual = 2.47301e-05, No Iterations 2
time step continuity errors : sum local = 2.08346e-07, global = 2.05398e-16, cumulative = 4.32195e-15
smoothSolver:  Solving for nuTilda, Initial residual = 2.70559e-07, Final residual = 8.3256e-09, No Iterations 2
ExecutionTime = 15.72 s  ClockTime = 16 s

Time = 996

smoothSolver:  Solving for Ux, Initial residual = 1.38935e-06, Final residual = 6.74204e-08, No Iterations 2
smoothSolver:  Solving for Uy, Initial residual = 1.10429e-06, Final residual = 9.29726e-08, No Iterations 2
GAMG:  Solving for p, Initial residual = 0.000698331, Final residual = 2.4716e-05, No Iterations 2
time step continuity errors : sum local = 2.05868e-07, global = 7.90891e-17, cumulative = 4.40104e-15
smoothSolver:  Solving for nuTilda, Initial residual = 3.52454e-07, Final residual = 7.64529e-09, No Iterations 2
ExecutionTime = 15.74 s  ClockTime = 16 s

Time = 997

smoothSolver:  Solving for Ux, Initial residual = 1.30675e-06, Final residual = 6.69982e-08, No Iterations 2
smoothSolver:  Solving for Uy, Initial residual = 1.10366e-06, Final residual = 9.35216e-08, No Iterations 2
GAMG:  Solving for p, Initial residual = 0.000715157, Final residual = 2.47301e-05, No Iterations 2
time step continuity errors : sum local = 2.08344e-07, global = 9.0056e-17, cumulative = 4.4911e-15
smoothSolver:  Solving for nuTilda, Initial residual = 2.70559e-07, Final residual = 8.32556e-09, No Iterations 2
ExecutionTime = 15.75 s  ClockTime = 16 s

Time = 998

smoothSolver:  Solving for Ux, Initial residual = 1.38935e-06, Final residual = 6.74204e-08, No Iterations 2
smoothSolver:  Solving for Uy, Initial residual = 1.10429e-06, Final residual = 9.29725e-08, No Iterations 2
GAMG:  Solving for p, Initial residual = 0.000698331, Final residual = 2.47161e-05, No Iterations 2
time step continuity errors : sum local = 2.0587e-07, global = 2.8716e-16, cumulative = 4.77826e-15
smoothSolver:  Solving for nuTilda, Initial residual = 3.52454e-07, Final residual = 7.64525e-09, No Iterations 2
ExecutionTime = 15.76 s  ClockTime = 16 s

Time = 999

smoothSolver:  Solving for Ux, Initial residual = 1.30675e-06, Final residual = 6.69982e-08, No Iterations 2
smoothSolver:  Solving for Uy, Initial residual = 1.10366e-06, Final residual = 9.35217e-08, No Iterations 2
GAMG:  Solving for p, Initial residual = 0.000715157, Final residual = 2.473e-05, No Iterations 2
time step continuity errors : sum local = 2.08341e-07, global = 1.44141e-16, cumulative = 4.9224e-15
smoothSolver:  Solving for nuTilda, Initial residual = 2.70559e-07, Final residual = 8.32552e-09, No Iterations 2
ExecutionTime = 15.78 s  ClockTime = 16 s

Time = 1000

smoothSolver:  Solving for Ux, Initial residual = 1.38935e-06, Final residual = 6.74204e-08, No Iterations 2
smoothSolver:  Solving for Uy, Initial residual = 1.10429e-06, Final residual = 9.29725e-08, No Iterations 2
GAMG:  Solving for p, Initial residual = 0.000698331, Final residual = 2.47161e-05, No Iterations 2
time step continuity errors : sum local = 2.05871e-07, global = 8.4382e-17, cumulative = 5.00678e-15
smoothSolver:  Solving for nuTilda, Initial residual = 3.52454e-07, Final residual = 7.64521e-09, No Iterations 2
ExecutionTime = 15.83 s  ClockTime = 16 s

End

