/*---------------------------------------------------------------------------*\
| =========                 |                                                 |
| \\      /  F ield         | OpenFOAM: The Open Source CFD Toolbox           |
|  \\    /   O peration     | Version:  5.x                                   |
|   \\  /    A nd           | Web:      www.OpenFOAM.org                      |
|    \\/     M anipulation  |                                                 |
\*---------------------------------------------------------------------------*/
Build  : 5.x-68e8507efb72
Exec   : simpleFoam
Date   : Feb 05 2022
Time   : 09:43:34
Host   : "Desktop-PC"
PID    : 15969
I/O    : uncollated
Case   : /home/emilio/code/flow-separation-prediction/openfoam/run/Airfold2D_full
nProcs : 1
sigFpe : Enabling floating point exception trapping (FOAM_SIGFPE).
fileModificationChecking : Monitoring run-time modified files using timeStampMaster (fileModificationSkew 10)
allowSystemOperations : Allowing user-supplied system call operations

// * * * * * * * * * * * * * * * * * * * * * * * * * * * * * * * * * * * * * //
Create time

Create mesh for time = 0


SIMPLE: convergence criteria
    field p	 tolerance 1e-05
    field U	 tolerance 1e-05
    field nuTilda	 tolerance 1e-05

Reading field p

Reading field U

Reading/calculating face flux field phi

Selecting incompressible transport model Newtonian
Selecting turbulence model type RAS
Selecting RAS turbulence model SpalartAllmaras
Selecting patchDistMethod meshWave
RAS
{
    RASModel        SpalartAllmaras;
    turbulence      on;
    printCoeffs     on;
    sigmaNut        0.66666;
    kappa           0.41;
    Cb1             0.1355;
    Cb2             0.622;
    Cw2             0.3;
    Cw3             2;
    Cv1             7.1;
    Cs              0.3;
}

No MRF models present

No finite volume options present


Starting time loop

Time = 1

smoothSolver:  Solving for Ux, Initial residual = 1, Final residual = 0.0345625, No Iterations 2
smoothSolver:  Solving for Uy, Initial residual = 1, Final residual = 0.067116, No Iterations 2
GAMG:  Solving for p, Initial residual = 1, Final residual = 0.0446331, No Iterations 8
time step continuity errors : sum local = 0.000836427, global = -1.12936e-17, cumulative = -1.12936e-17
smoothSolver:  Solving for nuTilda, Initial residual = 1, Final residual = 0.0175729, No Iterations 2
ExecutionTime = 0.09 s  ClockTime = 0 s

Time = 2

smoothSolver:  Solving for Ux, Initial residual = 0.532809, Final residual = 0.0109204, No Iterations 4
smoothSolver:  Solving for Uy, Initial residual = 0.439673, Final residual = 0.0138628, No Iterations 4
GAMG:  Solving for p, Initial residual = 0.846901, Final residual = 0.0721785, No Iterations 3
time step continuity errors : sum local = 0.00381934, global = -3.93504e-16, cumulative = -4.04798e-16
smoothSolver:  Solving for nuTilda, Initial residual = 0.113489, Final residual = 0.00584661, No Iterations 2
ExecutionTime = 0.11 s  ClockTime = 0 s

Time = 3

smoothSolver:  Solving for Ux, Initial residual = 0.165068, Final residual = 0.0153233, No Iterations 2
smoothSolver:  Solving for Uy, Initial residual = 0.0990021, Final residual = 0.00241139, No Iterations 4
GAMG:  Solving for p, Initial residual = 0.859575, Final residual = 0.0765127, No Iterations 4
time step continuity errors : sum local = 0.00682719, global = -4.02213e-16, cumulative = -8.0701e-16
smoothSolver:  Solving for nuTilda, Initial residual = 0.0343961, Final residual = 0.0034188, No Iterations 2
ExecutionTime = 0.13 s  ClockTime = 0 s

Time = 4

smoothSolver:  Solving for Ux, Initial residual = 0.0476243, Final residual = 0.00437146, No Iterations 2
smoothSolver:  Solving for Uy, Initial residual = 0.02785, Final residual = 0.000641111, No Iterations 4
GAMG:  Solving for p, Initial residual = 0.867668, Final residual = 0.06872, No Iterations 4
time step continuity errors : sum local = 0.00509343, global = -9.67559e-17, cumulative = -9.03766e-16
smoothSolver:  Solving for nuTilda, Initial residual = 0.018717, Final residual = 0.000364234, No Iterations 4
ExecutionTime = 0.15 s  ClockTime = 0 s

Time = 5

smoothSolver:  Solving for Ux, Initial residual = 0.105415, Final residual = 0.0103461, No Iterations 2
smoothSolver:  Solving for Uy, Initial residual = 0.068691, Final residual = 0.00153054, No Iterations 4
GAMG:  Solving for p, Initial residual = 0.78913, Final residual = 0.0484597, No Iterations 4
time step continuity errors : sum local = 0.00370819, global = -6.42079e-16, cumulative = -1.54584e-15
smoothSolver:  Solving for nuTilda, Initial residual = 0.0131171, Final residual = 0.00026057, No Iterations 4
ExecutionTime = 0.17 s  ClockTime = 0 s

Time = 6

smoothSolver:  Solving for Ux, Initial residual = 0.165617, Final residual = 0.0128884, No Iterations 2
smoothSolver:  Solving for Uy, Initial residual = 0.121911, Final residual = 0.00216359, No Iterations 4
GAMG:  Solving for p, Initial residual = 0.832377, Final residual = 0.074017, No Iterations 4
time step continuity errors : sum local = 0.0053705, global = 6.92038e-16, cumulative = -8.53807e-16
smoothSolver:  Solving for nuTilda, Initial residual = 0.0104423, Final residual = 0.000199051, No Iterations 4
ExecutionTime = 0.19 s  ClockTime = 0 s

Time = 7

smoothSolver:  Solving for Ux, Initial residual = 0.110527, Final residual = 0.00776671, No Iterations 2
smoothSolver:  Solving for Uy, Initial residual = 0.112365, Final residual = 0.00205066, No Iterations 4
GAMG:  Solving for p, Initial residual = 0.817416, Final residual = 0.0679131, No Iterations 4
time step continuity errors : sum local = 0.00401195, global = -5.5998e-16, cumulative = -1.41379e-15
smoothSolver:  Solving for nuTilda, Initial residual = 0.00862358, Final residual = 0.000154987, No Iterations 4
bounding nuTilda, min: -0.00190243 max: 0.140697 average: 0.129373
ExecutionTime = 0.21 s  ClockTime = 0 s

Time = 8

smoothSolver:  Solving for Ux, Initial residual = 0.0905489, Final residual = 0.00656287, No Iterations 2
smoothSolver:  Solving for Uy, Initial residual = 0.0732942, Final residual = 0.00112503, No Iterations 4
GAMG:  Solving for p, Initial residual = 0.861764, Final residual = 0.0530827, No Iterations 4
time step continuity errors : sum local = 0.00303447, global = 1.24152e-16, cumulative = -1.28963e-15
smoothSolver:  Solving for nuTilda, Initial residual = 0.00715496, Final residual = 0.000123193, No Iterations 4
ExecutionTime = 0.22 s  ClockTime = 0 s

Time = 9

smoothSolver:  Solving for Ux, Initial residual = 0.100419, Final residual = 0.00686491, No Iterations 2
smoothSolver:  Solving for Uy, Initial residual = 0.0506359, Final residual = 0.00481101, No Iterations 2
GAMG:  Solving for p, Initial residual = 0.806675, Final residual = 0.0520235, No Iterations 4
time step continuity errors : sum local = 0.00282107, global = -4.53712e-16, cumulative = -1.74335e-15
smoothSolver:  Solving for nuTilda, Initial residual = 0.00599437, Final residual = 0.000100037, No Iterations 4
bounding nuTilda, min: -0.000139217 max: 0.141102 average: 0.128241
ExecutionTime = 0.24 s  ClockTime = 0 s

Time = 10

smoothSolver:  Solving for Ux, Initial residual = 0.0612179, Final residual = 0.00399133, No Iterations 2
smoothSolver:  Solving for Uy, Initial residual = 0.0305264, Final residual = 0.00277709, No Iterations 2
GAMG:  Solving for p, Initial residual = 0.787958, Final residual = 0.0505452, No Iterations 4
time step continuity errors : sum local = 0.00252747, global = -5.15436e-16, cumulative = -2.25878e-15
smoothSolver:  Solving for nuTilda, Initial residual = 0.00528371, Final residual = 8.55059e-05, No Iterations 4
ExecutionTime = 0.26 s  ClockTime = 0 s

Time = 11

smoothSolver:  Solving for Ux, Initial residual = 0.0334966, Final residual = 0.00243673, No Iterations 2
smoothSolver:  Solving for Uy, Initial residual = 0.0222997, Final residual = 0.00209798, No Iterations 2
GAMG:  Solving for p, Initial residual = 0.792992, Final residual = 0.0358019, No Iterations 4
time step continuity errors : sum local = 0.00171523, global = 3.10274e-16, cumulative = -1.94851e-15
smoothSolver:  Solving for nuTilda, Initial residual = 0.00491607, Final residual = 7.74533e-05, No Iterations 4
bounding nuTilda, min: -0.0013827 max: 0.141605 average: 0.127379
ExecutionTime = 0.28 s  ClockTime = 0 s

Time = 12

smoothSolver:  Solving for Ux, Initial residual = 0.0425543, Final residual = 0.00301048, No Iterations 2
smoothSolver:  Solving for Uy, Initial residual = 0.0339749, Final residual = 0.000549283, No Iterations 4
GAMG:  Solving for p, Initial residual = 0.749285, Final residual = 0.0745556, No Iterations 3
time step continuity errors : sum local = 0.00330739, global = 2.39055e-16, cumulative = -1.70945e-15
smoothSolver:  Solving for nuTilda, Initial residual = 0.00467707, Final residual = 7.21038e-05, No Iterations 4
bounding nuTilda, min: -6.08907e-05 max: 0.141804 average: 0.126994
ExecutionTime = 0.29 s  ClockTime = 0 s

Time = 13

smoothSolver:  Solving for Ux, Initial residual = 0.0368904, Final residual = 0.00238365, No Iterations 2
smoothSolver:  Solving for Uy, Initial residual = 0.0314996, Final residual = 0.000517996, No Iterations 4
GAMG:  Solving for p, Initial residual = 0.755156, Final residual = 0.0466076, No Iterations 4
time step continuity errors : sum local = 0.00184165, global = 4.03335e-16, cumulative = -1.30612e-15
smoothSolver:  Solving for nuTilda, Initial residual = 0.00441613, Final residual = 6.62512e-05, No Iterations 4
ExecutionTime = 0.31 s  ClockTime = 0 s

Time = 14

smoothSolver:  Solving for Ux, Initial residual = 0.0300128, Final residual = 0.00181876, No Iterations 2
smoothSolver:  Solving for Uy, Initial residual = 0.0205983, Final residual = 0.00151817, No Iterations 2
GAMG:  Solving for p, Initial residual = 0.756017, Final residual = 0.0292855, No Iterations 4
time step continuity errors : sum local = 0.00104016, global = -7.08161e-16, cumulative = -2.01428e-15
smoothSolver:  Solving for nuTilda, Initial residual = 0.00413938, Final residual = 6.0905e-05, No Iterations 4
ExecutionTime = 0.33 s  ClockTime = 0 s

Time = 15

smoothSolver:  Solving for Ux, Initial residual = 0.0340429, Final residual = 0.00215463, No Iterations 2
smoothSolver:  Solving for Uy, Initial residual = 0.0244666, Final residual = 0.00195995, No Iterations 2
GAMG:  Solving for p, Initial residual = 0.747092, Final residual = 0.0429916, No Iterations 4
time step continuity errors : sum local = 0.00139825, global = 5.8534e-16, cumulative = -1.42894e-15
smoothSolver:  Solving for nuTilda, Initial residual = 0.003879, Final residual = 0.000385772, No Iterations 2
bounding nuTilda, min: -0.00260943 max: 0.142462 average: 0.126046
ExecutionTime = 0.35 s  ClockTime = 0 s

Time = 16

smoothSolver:  Solving for Ux, Initial residual = 0.0288631, Final residual = 0.00191305, No Iterations 2
smoothSolver:  Solving for Uy, Initial residual = 0.0193229, Final residual = 0.00152725, No Iterations 2
GAMG:  Solving for p, Initial residual = 0.724649, Final residual = 0.0429609, No Iterations 4
time step continuity errors : sum local = 0.00129526, global = 4.20655e-17, cumulative = -1.38687e-15
smoothSolver:  Solving for nuTilda, Initial residual = 0.00371492, Final residual = 0.000365466, No Iterations 2
bounding nuTilda, min: -0.00219071 max: 0.142695 average: 0.125801
ExecutionTime = 0.36 s  ClockTime = 0 s

Time = 17

smoothSolver:  Solving for Ux, Initial residual = 0.0215234, Final residual = 0.00154146, No Iterations 2
smoothSolver:  Solving for Uy, Initial residual = 0.0133171, Final residual = 0.00109384, No Iterations 2
GAMG:  Solving for p, Initial residual = 0.716582, Final residual = 0.0659069, No Iterations 3
time step continuity errors : sum local = 0.0018855, global = 1.70654e-17, cumulative = -1.36981e-15
smoothSolver:  Solving for nuTilda, Initial residual = 0.00360645, Final residual = 0.000354011, No Iterations 2
bounding nuTilda, min: -0.00201851 max: 0.142955 average: 0.125572
ExecutionTime = 0.38 s  ClockTime = 0 s

Time = 18

smoothSolver:  Solving for Ux, Initial residual = 0.0186027, Final residual = 0.00133699, No Iterations 2
smoothSolver:  Solving for Uy, Initial residual = 0.0142895, Final residual = 0.00141438, No Iterations 2
GAMG:  Solving for p, Initial residual = 0.665403, Final residual = 0.0560846, No Iterations 3
time step continuity errors : sum local = 0.00151044, global = 1.39399e-16, cumulative = -1.23041e-15
smoothSolver:  Solving for nuTilda, Initial residual = 0.00351286, Final residual = 0.000344565, No Iterations 2
bounding nuTilda, min: -0.00166176 max: 0.143209 average: 0.125353
ExecutionTime = 0.4 s  ClockTime = 0 s

Time = 19

smoothSolver:  Solving for Ux, Initial residual = 0.0165039, Final residual = 0.00109854, No Iterations 2
smoothSolver:  Solving for Uy, Initial residual = 0.0145598, Final residual = 0.000242298, No Iterations 4
GAMG:  Solving for p, Initial residual = 0.64673, Final residual = 0.0637456, No Iterations 3
time step continuity errors : sum local = 0.0016368, global = 2.18799e-16, cumulative = -1.01161e-15
smoothSolver:  Solving for nuTilda, Initial residual = 0.00341627, Final residual = 0.00033413, No Iterations 2
bounding nuTilda, min: -0.000930217 max: 0.143458 average: 0.125145
ExecutionTime = 0.42 s  ClockTime = 0 s

Time = 20

smoothSolver:  Solving for Ux, Initial residual = 0.0165633, Final residual = 0.0010888, No Iterations 2
smoothSolver:  Solving for Uy, Initial residual = 0.0124615, Final residual = 0.00107642, No Iterations 2
GAMG:  Solving for p, Initial residual = 0.629045, Final residual = 0.0622675, No Iterations 3
time step continuity errors : sum local = 0.00151346, global = 4.20384e-16, cumulative = -5.91227e-16
smoothSolver:  Solving for nuTilda, Initial residual = 0.0033252, Final residual = 0.000324816, No Iterations 2
bounding nuTilda, min: -0.000433176 max: 0.143724 average: 0.124943
ExecutionTime = 0.44 s  ClockTime = 0 s

Time = 21

smoothSolver:  Solving for Ux, Initial residual = 0.0155725, Final residual = 0.00104746, No Iterations 2
smoothSolver:  Solving for Uy, Initial residual = 0.0116906, Final residual = 0.000850035, No Iterations 2
GAMG:  Solving for p, Initial residual = 0.601551, Final residual = 0.0488242, No Iterations 3
time step continuity errors : sum local = 0.00112637, global = 1.3645e-17, cumulative = -5.77582e-16
smoothSolver:  Solving for nuTilda, Initial residual = 0.00324661, Final residual = 0.000317184, No Iterations 2
bounding nuTilda, min: -0.000207231 max: 0.144009 average: 0.124748
ExecutionTime = 0.46 s  ClockTime = 0 s

Time = 22

smoothSolver:  Solving for Ux, Initial residual = 0.0140992, Final residual = 0.000973661, No Iterations 2
smoothSolver:  Solving for Uy, Initial residual = 0.0113399, Final residual = 0.000859497, No Iterations 2
GAMG:  Solving for p, Initial residual = 0.591385, Final residual = 0.0481542, No Iterations 3
time step continuity errors : sum local = 0.00105016, global = 1.53724e-16, cumulative = -4.23858e-16
smoothSolver:  Solving for nuTilda, Initial residual = 0.00317601, Final residual = 0.000310247, No Iterations 2
ExecutionTime = 0.47 s  ClockTime = 0 s

Time = 23

smoothSolver:  Solving for Ux, Initial residual = 0.013755, Final residual = 0.000999663, No Iterations 2
smoothSolver:  Solving for Uy, Initial residual = 0.010202, Final residual = 0.0008626, No Iterations 2
GAMG:  Solving for p, Initial residual = 0.581259, Final residual = 0.0526723, No Iterations 3
time step continuity errors : sum local = 0.00106901, global = 2.49624e-16, cumulative = -1.74234e-16
smoothSolver:  Solving for nuTilda, Initial residual = 0.00310766, Final residual = 0.000303722, No Iterations 2
ExecutionTime = 0.49 s  ClockTime = 1 s

Time = 24

smoothSolver:  Solving for Ux, Initial residual = 0.0136002, Final residual = 0.00102693, No Iterations 2
smoothSolver:  Solving for Uy, Initial residual = 0.00951664, Final residual = 0.000873257, No Iterations 2
GAMG:  Solving for p, Initial residual = 0.574199, Final residual = 0.0508696, No Iterations 3
time step continuity errors : sum local = 0.00100163, global = -1.34029e-16, cumulative = -3.08263e-16
smoothSolver:  Solving for nuTilda, Initial residual = 0.00304736, Final residual = 0.000298597, No Iterations 2
bounding nuTilda, min: -0.000649373 max: 0.144899 average: 0.124204
ExecutionTime = 0.5 s  ClockTime = 1 s

Time = 25

smoothSolver:  Solving for Ux, Initial residual = 0.0132781, Final residual = 0.000973509, No Iterations 2
smoothSolver:  Solving for Uy, Initial residual = 0.00971885, Final residual = 0.000911058, No Iterations 2
GAMG:  Solving for p, Initial residual = 0.534461, Final residual = 0.0365172, No Iterations 3
time step continuity errors : sum local = 0.000695193, global = 7.4739e-17, cumulative = -2.33524e-16
smoothSolver:  Solving for nuTilda, Initial residual = 0.00299281, Final residual = 0.000294226, No Iterations 2
bounding nuTilda, min: -0.00129627 max: 0.145219 average: 0.124035
ExecutionTime = 0.52 s  ClockTime = 1 s

Time = 26

smoothSolver:  Solving for Ux, Initial residual = 0.0125704, Final residual = 0.000879122, No Iterations 2
smoothSolver:  Solving for Uy, Initial residual = 0.00944952, Final residual = 0.000854972, No Iterations 2
GAMG:  Solving for p, Initial residual = 0.517419, Final residual = 0.0417537, No Iterations 3
time step continuity errors : sum local = 0.000755106, global = -3.63453e-16, cumulative = -5.96977e-16
smoothSolver:  Solving for nuTilda, Initial residual = 0.00294142, Final residual = 0.000290382, No Iterations 2
bounding nuTilda, min: -0.000260452 max: 0.145538 average: 0.123869
ExecutionTime = 0.54 s  ClockTime = 1 s

Time = 27

smoothSolver:  Solving for Ux, Initial residual = 0.0117246, Final residual = 0.000837119, No Iterations 2
smoothSolver:  Solving for Uy, Initial residual = 0.00900756, Final residual = 0.000783164, No Iterations 2
GAMG:  Solving for p, Initial residual = 0.512505, Final residual = 0.0444483, No Iterations 3
time step continuity errors : sum local = 0.000775901, global = -3.88928e-16, cumulative = -9.85905e-16
smoothSolver:  Solving for nuTilda, Initial residual = 0.00289002, Final residual = 0.000287141, No Iterations 2
bounding nuTilda, min: -8.96232e-05 max: 0.145875 average: 0.123704
ExecutionTime = 0.55 s  ClockTime = 1 s

Time = 28

smoothSolver:  Solving for Ux, Initial residual = 0.0107964, Final residual = 0.0007841, No Iterations 2
smoothSolver:  Solving for Uy, Initial residual = 0.00880254, Final residual = 0.000784087, No Iterations 2
GAMG:  Solving for p, Initial residual = 0.495157, Final residual = 0.0421918, No Iterations 3
time step continuity errors : sum local = 0.000723223, global = 1.63592e-16, cumulative = -8.22313e-16
smoothSolver:  Solving for nuTilda, Initial residual = 0.00283839, Final residual = 0.000283729, No Iterations 2
ExecutionTime = 0.57 s  ClockTime = 1 s

Time = 29

smoothSolver:  Solving for Ux, Initial residual = 0.0107345, Final residual = 0.000757986, No Iterations 2
smoothSolver:  Solving for Uy, Initial residual = 0.0084366, Final residual = 0.000791981, No Iterations 2
GAMG:  Solving for p, Initial residual = 0.469341, Final residual = 0.0337552, No Iterations 3
time step continuity errors : sum local = 0.000547886, global = 4.34783e-16, cumulative = -3.8753e-16
smoothSolver:  Solving for nuTilda, Initial residual = 0.00278742, Final residual = 4.19107e-05, No Iterations 4
ExecutionTime = 0.59 s  ClockTime = 1 s

Time = 30

smoothSolver:  Solving for Ux, Initial residual = 0.0110556, Final residual = 0.000798091, No Iterations 2
smoothSolver:  Solving for Uy, Initial residual = 0.00800532, Final residual = 0.000765334, No Iterations 2
GAMG:  Solving for p, Initial residual = 0.452804, Final residual = 0.0442511, No Iterations 3
time step continuity errors : sum local = 0.000713428, global = -1.10098e-16, cumulative = -4.97628e-16
smoothSolver:  Solving for nuTilda, Initial residual = 0.00272823, Final residual = 4.16663e-05, No Iterations 4
ExecutionTime = 0.6 s  ClockTime = 1 s

Time = 31

smoothSolver:  Solving for Ux, Initial residual = 0.0112041, Final residual = 0.000833803, No Iterations 2
smoothSolver:  Solving for Uy, Initial residual = 0.00747691, Final residual = 0.00070107, No Iterations 2
GAMG:  Solving for p, Initial residual = 0.438419, Final residual = 0.0390321, No Iterations 3
time step continuity errors : sum local = 0.000614651, global = -6.60113e-16, cumulative = -1.15774e-15
smoothSolver:  Solving for nuTilda, Initial residual = 0.00267932, Final residual = 4.14792e-05, No Iterations 4
ExecutionTime = 0.62 s  ClockTime = 1 s

Time = 32

smoothSolver:  Solving for Ux, Initial residual = 0.0109206, Final residual = 0.000815955, No Iterations 2
smoothSolver:  Solving for Uy, Initial residual = 0.0072071, Final residual = 0.000657022, No Iterations 2
GAMG:  Solving for p, Initial residual = 0.423998, Final residual = 0.0292645, No Iterations 3
time step continuity errors : sum local = 0.000438253, global = -2.25932e-16, cumulative = -1.38367e-15
smoothSolver:  Solving for nuTilda, Initial residual = 0.00263952, Final residual = 4.14016e-05, No Iterations 4
ExecutionTime = 0.64 s  ClockTime = 1 s

Time = 33

smoothSolver:  Solving for Ux, Initial residual = 0.0105596, Final residual = 0.000773446, No Iterations 2
smoothSolver:  Solving for Uy, Initial residual = 0.00710225, Final residual = 0.000657393, No Iterations 2
GAMG:  Solving for p, Initial residual = 0.403599, Final residual = 0.0311624, No Iterations 3
time step continuity errors : sum local = 0.00046231, global = 7.31341e-17, cumulative = -1.31054e-15
smoothSolver:  Solving for nuTilda, Initial residual = 0.00260694, Final residual = 4.14717e-05, No Iterations 4
ExecutionTime = 0.65 s  ClockTime = 1 s

Time = 34

smoothSolver:  Solving for Ux, Initial residual = 0.0101247, Final residual = 0.000719482, No Iterations 2
smoothSolver:  Solving for Uy, Initial residual = 0.00711431, Final residual = 0.000676155, No Iterations 2
GAMG:  Solving for p, Initial residual = 0.38358, Final residual = 0.036703, No Iterations 3
time step continuity errors : sum local = 0.000531123, global = -1.12425e-15, cumulative = -2.43479e-15
smoothSolver:  Solving for nuTilda, Initial residual = 0.00257314, Final residual = 4.14543e-05, No Iterations 4
ExecutionTime = 0.67 s  ClockTime = 1 s

Time = 35

smoothSolver:  Solving for Ux, Initial residual = 0.00982657, Final residual = 0.00069435, No Iterations 2
smoothSolver:  Solving for Uy, Initial residual = 0.00720807, Final residual = 0.00069072, No Iterations 2
GAMG:  Solving for p, Initial residual = 0.373223, Final residual = 0.0358788, No Iterations 3
time step continuity errors : sum local = 0.000512171, global = 3.25819e-16, cumulative = -2.10897e-15
smoothSolver:  Solving for nuTilda, Initial residual = 0.00254475, Final residual = 4.14532e-05, No Iterations 4
ExecutionTime = 0.68 s  ClockTime = 1 s

Time = 36

smoothSolver:  Solving for Ux, Initial residual = 0.00993915, Final residual = 0.000696512, No Iterations 2
smoothSolver:  Solving for Uy, Initial residual = 0.00699738, Final residual = 0.000679639, No Iterations 2
GAMG:  Solving for p, Initial residual = 0.357853, Final residual = 0.0352423, No Iterations 3
time step continuity errors : sum local = 0.000498706, global = 5.75742e-17, cumulative = -2.05139e-15
smoothSolver:  Solving for nuTilda, Initial residual = 0.00251605, Final residual = 4.13788e-05, No Iterations 4
ExecutionTime = 0.7 s  ClockTime = 1 s

Time = 37

smoothSolver:  Solving for Ux, Initial residual = 0.0103132, Final residual = 0.000710052, No Iterations 2
smoothSolver:  Solving for Uy, Initial residual = 0.00649947, Final residual = 0.000636008, No Iterations 2
GAMG:  Solving for p, Initial residual = 0.337156, Final residual = 0.0300086, No Iterations 3
time step continuity errors : sum local = 0.000420931, global = 9.59939e-17, cumulative = -1.9554e-15
smoothSolver:  Solving for nuTilda, Initial residual = 0.00248849, Final residual = 4.12673e-05, No Iterations 4
ExecutionTime = 0.72 s  ClockTime = 1 s

Time = 38

smoothSolver:  Solving for Ux, Initial residual = 0.0101382, Final residual = 0.000711857, No Iterations 2
smoothSolver:  Solving for Uy, Initial residual = 0.00604498, Final residual = 0.000592381, No Iterations 2
GAMG:  Solving for p, Initial residual = 0.317106, Final residual = 0.0289308, No Iterations 3
time step continuity errors : sum local = 0.000386968, global = 6.59994e-16, cumulative = -1.2954e-15
smoothSolver:  Solving for nuTilda, Initial residual = 0.00246123, Final residual = 4.11511e-05, No Iterations 4
ExecutionTime = 0.73 s  ClockTime = 1 s

Time = 39

smoothSolver:  Solving for Ux, Initial residual = 0.00967389, Final residual = 0.000696124, No Iterations 2
smoothSolver:  Solving for Uy, Initial residual = 0.00583208, Final residual = 0.000572569, No Iterations 2
GAMG:  Solving for p, Initial residual = 0.306681, Final residual = 0.0134078, No Iterations 4
time step continuity errors : sum local = 0.000178059, global = -2.64606e-16, cumulative = -1.56001e-15
smoothSolver:  Solving for nuTilda, Initial residual = 0.00243539, Final residual = 4.10885e-05, No Iterations 4
ExecutionTime = 0.75 s  ClockTime = 1 s

Time = 40

smoothSolver:  Solving for Ux, Initial residual = 0.00951521, Final residual = 0.000682493, No Iterations 2
smoothSolver:  Solving for Uy, Initial residual = 0.00586873, Final residual = 0.000575464, No Iterations 2
GAMG:  Solving for p, Initial residual = 0.292436, Final residual = 0.0259694, No Iterations 3
time step continuity errors : sum local = 0.000342344, global = 2.22246e-16, cumulative = -1.33776e-15
smoothSolver:  Solving for nuTilda, Initial residual = 0.00241051, Final residual = 4.10506e-05, No Iterations 4
ExecutionTime = 0.77 s  ClockTime = 1 s

Time = 41

smoothSolver:  Solving for Ux, Initial residual = 0.00944253, Final residual = 0.000664777, No Iterations 2
smoothSolver:  Solving for Uy, Initial residual = 0.00588609, Final residual = 0.000578046, No Iterations 2
GAMG:  Solving for p, Initial residual = 0.271862, Final residual = 0.0221737, No Iterations 3
time step continuity errors : sum local = 0.000290083, global = -6.4733e-16, cumulative = -1.98509e-15
smoothSolver:  Solving for nuTilda, Initial residual = 0.00239121, Final residual = 4.10665e-05, No Iterations 4
ExecutionTime = 0.78 s  ClockTime = 1 s

Time = 42

smoothSolver:  Solving for Ux, Initial residual = 0.009267, Final residual = 0.000642477, No Iterations 2
smoothSolver:  Solving for Uy, Initial residual = 0.00579511, Final residual = 0.00056765, No Iterations 2
GAMG:  Solving for p, Initial residual = 0.255915, Final residual = 0.0209071, No Iterations 4
time step continuity errors : sum local = 0.000269765, global = -2.07754e-16, cumulative = -2.19285e-15
smoothSolver:  Solving for nuTilda, Initial residual = 0.00237392, Final residual = 4.10786e-05, No Iterations 4
ExecutionTime = 0.8 s  ClockTime = 1 s

Time = 43

smoothSolver:  Solving for Ux, Initial residual = 0.00916672, Final residual = 0.000629543, No Iterations 2
smoothSolver:  Solving for Uy, Initial residual = 0.00570168, Final residual = 0.0005471, No Iterations 2
GAMG:  Solving for p, Initial residual = 0.244105, Final residual = 0.0235998, No Iterations 3
time step continuity errors : sum local = 0.00030235, global = 1.27342e-16, cumulative = -2.06551e-15
smoothSolver:  Solving for nuTilda, Initial residual = 0.0023571, Final residual = 4.10454e-05, No Iterations 4
ExecutionTime = 0.81 s  ClockTime = 1 s

Time = 44

smoothSolver:  Solving for Ux, Initial residual = 0.00907298, Final residual = 0.000621229, No Iterations 2
smoothSolver:  Solving for Uy, Initial residual = 0.00548187, Final residual = 0.000525004, No Iterations 2
GAMG:  Solving for p, Initial residual = 0.234331, Final residual = 0.0221876, No Iterations 3
time step continuity errors : sum local = 0.000284382, global = -8.49399e-17, cumulative = -2.15045e-15
smoothSolver:  Solving for nuTilda, Initial residual = 0.0023429, Final residual = 4.09711e-05, No Iterations 4
ExecutionTime = 0.83 s  ClockTime = 1 s

Time = 45

smoothSolver:  Solving for Ux, Initial residual = 0.00898997, Final residual = 0.000612958, No Iterations 2
smoothSolver:  Solving for Uy, Initial residual = 0.00519572, Final residual = 0.000511353, No Iterations 2
GAMG:  Solving for p, Initial residual = 0.217417, Final residual = 0.0173579, No Iterations 3
time step continuity errors : sum local = 0.000215313, global = 1.03992e-16, cumulative = -2.04645e-15
smoothSolver:  Solving for nuTilda, Initial residual = 0.00233076, Final residual = 4.08985e-05, No Iterations 4
ExecutionTime = 0.85 s  ClockTime = 1 s

Time = 46

smoothSolver:  Solving for Ux, Initial residual = 0.00877875, Final residual = 0.000602358, No Iterations 2
smoothSolver:  Solving for Uy, Initial residual = 0.00508092, Final residual = 9.10709e-05, No Iterations 4
GAMG:  Solving for p, Initial residual = 0.207346, Final residual = 0.00936086, No Iterations 4
time step continuity errors : sum local = 0.000115957, global = -5.55015e-17, cumulative = -2.10196e-15
smoothSolver:  Solving for nuTilda, Initial residual = 0.00231676, Final residual = 4.08272e-05, No Iterations 4
ExecutionTime = 0.86 s  ClockTime = 1 s

Time = 47

smoothSolver:  Solving for Ux, Initial residual = 0.00867284, Final residual = 0.000600754, No Iterations 2
smoothSolver:  Solving for Uy, Initial residual = 0.00502208, Final residual = 0.000478283, No Iterations 2
GAMG:  Solving for p, Initial residual = 0.194487, Final residual = 0.018234, No Iterations 3
time step continuity errors : sum local = 0.00022755, global = 3.2412e-16, cumulative = -1.77784e-15
smoothSolver:  Solving for nuTilda, Initial residual = 0.00230363, Final residual = 4.07929e-05, No Iterations 4
ExecutionTime = 0.88 s  ClockTime = 1 s

Time = 48

smoothSolver:  Solving for Ux, Initial residual = 0.00851819, Final residual = 0.000591702, No Iterations 2
smoothSolver:  Solving for Uy, Initial residual = 0.00497903, Final residual = 0.000468131, No Iterations 2
GAMG:  Solving for p, Initial residual = 0.184011, Final residual = 0.0123909, No Iterations 3
time step continuity errors : sum local = 0.000151324, global = 2.42769e-16, cumulative = -1.53507e-15
smoothSolver:  Solving for nuTilda, Initial residual = 0.00229226, Final residual = 4.07833e-05, No Iterations 4
ExecutionTime = 0.89 s  ClockTime = 1 s

Time = 49

smoothSolver:  Solving for Ux, Initial residual = 0.00830459, Final residual = 0.000576563, No Iterations 2
smoothSolver:  Solving for Uy, Initial residual = 0.00488019, Final residual = 0.00046724, No Iterations 2
GAMG:  Solving for p, Initial residual = 0.17448, Final residual = 0.00537405, No Iterations 4
time step continuity errors : sum local = 6.5686e-05, global = 1.17754e-16, cumulative = -1.41731e-15
smoothSolver:  Solving for nuTilda, Initial residual = 0.00228225, Final residual = 4.07907e-05, No Iterations 4
ExecutionTime = 0.91 s  ClockTime = 1 s

Time = 50

smoothSolver:  Solving for Ux, Initial residual = 0.00809228, Final residual = 0.00055474, No Iterations 2
smoothSolver:  Solving for Uy, Initial residual = 0.00481693, Final residual = 0.000469491, No Iterations 2
GAMG:  Solving for p, Initial residual = 0.162335, Final residual = 0.012289, No Iterations 4
time step continuity errors : sum local = 0.000150104, global = -2.47643e-16, cumulative = -1.66496e-15
smoothSolver:  Solving for nuTilda, Initial residual = 0.00227159, Final residual = 4.07698e-05, No Iterations 4
ExecutionTime = 0.96 s  ClockTime = 1 s

Time = 51

smoothSolver:  Solving for Ux, Initial residual = 0.00801833, Final residual = 0.000540756, No Iterations 2
smoothSolver:  Solving for Uy, Initial residual = 0.00472991, Final residual = 0.000461258, No Iterations 2
GAMG:  Solving for p, Initial residual = 0.153896, Final residual = 0.0144001, No Iterations 3
time step continuity errors : sum local = 0.000175447, global = 6.4994e-16, cumulative = -1.01502e-15
smoothSolver:  Solving for nuTilda, Initial residual = 0.00226103, Final residual = 4.07601e-05, No Iterations 4
ExecutionTime = 0.98 s  ClockTime = 1 s

Time = 52

smoothSolver:  Solving for Ux, Initial residual = 0.00790755, Final residual = 0.000529284, No Iterations 2
smoothSolver:  Solving for Uy, Initial residual = 0.00460683, Final residual = 0.00044691, No Iterations 2
GAMG:  Solving for p, Initial residual = 0.147042, Final residual = 0.0113629, No Iterations 3
time step continuity errors : sum local = 0.000135533, global = -1.79033e-16, cumulative = -1.19405e-15
smoothSolver:  Solving for nuTilda, Initial residual = 0.00225151, Final residual = 4.07411e-05, No Iterations 4
ExecutionTime = 0.99 s  ClockTime = 1 s

Time = 53

smoothSolver:  Solving for Ux, Initial residual = 0.00774045, Final residual = 0.00051783, No Iterations 2
smoothSolver:  Solving for Uy, Initial residual = 0.004484, Final residual = 0.000432144, No Iterations 2
GAMG:  Solving for p, Initial residual = 0.138669, Final residual = 0.0120412, No Iterations 3
time step continuity errors : sum local = 0.000143824, global = 8.61193e-16, cumulative = -3.32857e-16
smoothSolver:  Solving for nuTilda, Initial residual = 0.00224225, Final residual = 4.07201e-05, No Iterations 4
ExecutionTime = 1.01 s  ClockTime = 1 s

Time = 54

smoothSolver:  Solving for Ux, Initial residual = 0.00755245, Final residual = 0.000508627, No Iterations 2
smoothSolver:  Solving for Uy, Initial residual = 0.00440963, Final residual = 0.000419904, No Iterations 2
GAMG:  Solving for p, Initial residual = 0.129781, Final residual = 0.00516306, No Iterations 4
time step continuity errors : sum local = 6.2257e-05, global = 2.70297e-16, cumulative = -6.25599e-17
smoothSolver:  Solving for nuTilda, Initial residual = 0.0022324, Final residual = 4.06926e-05, No Iterations 4
ExecutionTime = 1.03 s  ClockTime = 1 s

Time = 55

smoothSolver:  Solving for Ux, Initial residual = 0.00742906, Final residual = 0.000503592, No Iterations 2
smoothSolver:  Solving for Uy, Initial residual = 0.00436527, Final residual = 0.000411627, No Iterations 2
GAMG:  Solving for p, Initial residual = 0.121327, Final residual = 0.00913535, No Iterations 3
time step continuity errors : sum local = 0.000111861, global = -6.05654e-16, cumulative = -6.68214e-16
smoothSolver:  Solving for nuTilda, Initial residual = 0.00221964, Final residual = 4.06623e-05, No Iterations 4
ExecutionTime = 1.04 s  ClockTime = 1 s

Time = 56

smoothSolver:  Solving for Ux, Initial residual = 0.00728985, Final residual = 0.000491287, No Iterations 2
smoothSolver:  Solving for Uy, Initial residual = 0.00430441, Final residual = 0.000404942, No Iterations 2
GAMG:  Solving for p, Initial residual = 0.116707, Final residual = 0.00687864, No Iterations 3
time step continuity errors : sum local = 8.24023e-05, global = 4.46411e-16, cumulative = -2.21803e-16
smoothSolver:  Solving for nuTilda, Initial residual = 0.00220764, Final residual = 4.0637e-05, No Iterations 4
ExecutionTime = 1.05 s  ClockTime = 1 s

Time = 57

smoothSolver:  Solving for Ux, Initial residual = 0.0071418, Final residual = 0.000475664, No Iterations 2
smoothSolver:  Solving for Uy, Initial residual = 0.00424387, Final residual = 0.000398654, No Iterations 2
GAMG:  Solving for p, Initial residual = 0.11134, Final residual = 0.00357792, No Iterations 4
time step continuity errors : sum local = 4.32729e-05, global = -1.86136e-16, cumulative = -4.07938e-16
smoothSolver:  Solving for nuTilda, Initial residual = 0.00219501, Final residual = 4.06152e-05, No Iterations 4
ExecutionTime = 1.07 s  ClockTime = 1 s

Time = 58

smoothSolver:  Solving for Ux, Initial residual = 0.00701342, Final residual = 0.000459605, No Iterations 2
smoothSolver:  Solving for Uy, Initial residual = 0.0041853, Final residual = 0.000391533, No Iterations 2
GAMG:  Solving for p, Initial residual = 0.102003, Final residual = 0.00369705, No Iterations 4
time step continuity errors : sum local = 4.45646e-05, global = 5.5046e-16, cumulative = 1.42522e-16
smoothSolver:  Solving for nuTilda, Initial residual = 0.00218316, Final residual = 4.05827e-05, No Iterations 4
ExecutionTime = 1.1 s  ClockTime = 1 s

Time = 59

smoothSolver:  Solving for Ux, Initial residual = 0.00688909, Final residual = 0.000448012, No Iterations 2
smoothSolver:  Solving for Uy, Initial residual = 0.00410852, Final residual = 0.000381704, No Iterations 2
GAMG:  Solving for p, Initial residual = 0.0942188, Final residual = 0.00926694, No Iterations 3
time step continuity errors : sum local = 0.000112824, global = 6.90238e-19, cumulative = 1.43212e-16
smoothSolver:  Solving for nuTilda, Initial residual = 0.00216973, Final residual = 4.05569e-05, No Iterations 4
ExecutionTime = 1.11 s  ClockTime = 1 s

Time = 60

smoothSolver:  Solving for Ux, Initial residual = 0.00673878, Final residual = 0.000436923, No Iterations 2
smoothSolver:  Solving for Uy, Initial residual = 0.00403348, Final residual = 0.000372132, No Iterations 2
GAMG:  Solving for p, Initial residual = 0.0900758, Final residual = 0.00643533, No Iterations 3
time step continuity errors : sum local = 7.69761e-05, global = -7.54876e-17, cumulative = 6.77246e-17
smoothSolver:  Solving for nuTilda, Initial residual = 0.00215412, Final residual = 4.05093e-05, No Iterations 4
ExecutionTime = 1.13 s  ClockTime = 1 s

Time = 61

smoothSolver:  Solving for Ux, Initial residual = 0.00657345, Final residual = 0.000425119, No Iterations 2
smoothSolver:  Solving for Uy, Initial residual = 0.00397817, Final residual = 0.000364779, No Iterations 2
GAMG:  Solving for p, Initial residual = 0.086662, Final residual = 0.00670696, No Iterations 3
time step continuity errors : sum local = 8.02e-05, global = -4.40725e-16, cumulative = -3.73e-16
smoothSolver:  Solving for nuTilda, Initial residual = 0.0021378, Final residual = 4.04441e-05, No Iterations 4
ExecutionTime = 1.14 s  ClockTime = 1 s

Time = 62

smoothSolver:  Solving for Ux, Initial residual = 0.00642181, Final residual = 0.000414874, No Iterations 2
smoothSolver:  Solving for Uy, Initial residual = 0.00396081, Final residual = 0.00035974, No Iterations 2
GAMG:  Solving for p, Initial residual = 0.0811235, Final residual = 0.00643957, No Iterations 3
time step continuity errors : sum local = 7.69337e-05, global = 2.49933e-16, cumulative = -1.23067e-16
smoothSolver:  Solving for nuTilda, Initial residual = 0.00212214, Final residual = 4.03676e-05, No Iterations 4
ExecutionTime = 1.16 s  ClockTime = 1 s

Time = 63

smoothSolver:  Solving for Ux, Initial residual = 0.00628955, Final residual = 0.000405547, No Iterations 2
smoothSolver:  Solving for Uy, Initial residual = 0.00395322, Final residual = 0.000354985, No Iterations 2
GAMG:  Solving for p, Initial residual = 0.0760546, Final residual = 0.00557188, No Iterations 3
time step continuity errors : sum local = 6.66668e-05, global = -2.47012e-16, cumulative = -3.70079e-16
smoothSolver:  Solving for nuTilda, Initial residual = 0.00210523, Final residual = 4.02942e-05, No Iterations 4
ExecutionTime = 1.18 s  ClockTime = 1 s

Time = 64

smoothSolver:  Solving for Ux, Initial residual = 0.00616291, Final residual = 0.000395467, No Iterations 2
smoothSolver:  Solving for Uy, Initial residual = 0.00393161, Final residual = 0.000348702, No Iterations 2
GAMG:  Solving for p, Initial residual = 0.0722227, Final residual = 0.00653621, No Iterations 3
time step continuity errors : sum local = 7.98014e-05, global = -2.35131e-16, cumulative = -6.0521e-16
smoothSolver:  Solving for nuTilda, Initial residual = 0.00208721, Final residual = 4.01964e-05, No Iterations 4
ExecutionTime = 1.19 s  ClockTime = 1 s

Time = 65

smoothSolver:  Solving for Ux, Initial residual = 0.00604217, Final residual = 0.000384497, No Iterations 2
smoothSolver:  Solving for Uy, Initial residual = 0.00387778, Final residual = 0.000341004, No Iterations 2
GAMG:  Solving for p, Initial residual = 0.0682641, Final residual = 0.00508417, No Iterations 3
time step continuity errors : sum local = 6.10223e-05, global = 2.13249e-16, cumulative = -3.91961e-16
smoothSolver:  Solving for nuTilda, Initial residual = 0.00206844, Final residual = 4.00951e-05, No Iterations 4
ExecutionTime = 1.21 s  ClockTime = 1 s

Time = 66

smoothSolver:  Solving for Ux, Initial residual = 0.00590101, Final residual = 0.000372208, No Iterations 2
smoothSolver:  Solving for Uy, Initial residual = 0.00379161, Final residual = 0.000332607, No Iterations 2
GAMG:  Solving for p, Initial residual = 0.0642824, Final residual = 0.00527197, No Iterations 3
time step continuity errors : sum local = 6.32762e-05, global = 2.06026e-16, cumulative = -1.85935e-16
smoothSolver:  Solving for nuTilda, Initial residual = 0.00204922, Final residual = 3.99759e-05, No Iterations 4
ExecutionTime = 1.22 s  ClockTime = 1 s

Time = 67

smoothSolver:  Solving for Ux, Initial residual = 0.0057628, Final residual = 0.000361311, No Iterations 2
smoothSolver:  Solving for Uy, Initial residual = 0.00370375, Final residual = 0.000324813, No Iterations 2
GAMG:  Solving for p, Initial residual = 0.0602282, Final residual = 0.00471668, No Iterations 3
time step continuity errors : sum local = 5.66435e-05, global = -9.75823e-17, cumulative = -2.83517e-16
smoothSolver:  Solving for nuTilda, Initial residual = 0.00202918, Final residual = 3.98421e-05, No Iterations 4
ExecutionTime = 1.24 s  ClockTime = 1 s

Time = 68

smoothSolver:  Solving for Ux, Initial residual = 0.00563872, Final residual = 0.000351814, No Iterations 2
smoothSolver:  Solving for Uy, Initial residual = 0.0036527, Final residual = 0.000319112, No Iterations 2
GAMG:  Solving for p, Initial residual = 0.0570449, Final residual = 0.0036215, No Iterations 3
time step continuity errors : sum local = 4.34942e-05, global = 8.45248e-16, cumulative = 5.61731e-16
smoothSolver:  Solving for nuTilda, Initial residual = 0.0020087, Final residual = 3.9687e-05, No Iterations 4
ExecutionTime = 1.25 s  ClockTime = 1 s

Time = 69

smoothSolver:  Solving for Ux, Initial residual = 0.00552194, Final residual = 0.00034251, No Iterations 2
smoothSolver:  Solving for Uy, Initial residual = 0.00363194, Final residual = 0.000315489, No Iterations 2
GAMG:  Solving for p, Initial residual = 0.054173, Final residual = 0.00370298, No Iterations 3
time step continuity errors : sum local = 4.4372e-05, global = 3.22939e-16, cumulative = 8.8467e-16
smoothSolver:  Solving for nuTilda, Initial residual = 0.00198629, Final residual = 3.95072e-05, No Iterations 4
ExecutionTime = 1.27 s  ClockTime = 1 s

Time = 70

smoothSolver:  Solving for Ux, Initial residual = 0.00540249, Final residual = 0.000333366, No Iterations 2
smoothSolver:  Solving for Uy, Initial residual = 0.00363857, Final residual = 0.000312894, No Iterations 2
GAMG:  Solving for p, Initial residual = 0.0505277, Final residual = 0.00391276, No Iterations 3
time step continuity errors : sum local = 4.68561e-05, global = 2.11817e-16, cumulative = 1.09649e-15
smoothSolver:  Solving for nuTilda, Initial residual = 0.00196143, Final residual = 3.93127e-05, No Iterations 4
ExecutionTime = 1.28 s  ClockTime = 1 s

Time = 71

smoothSolver:  Solving for Ux, Initial residual = 0.00528607, Final residual = 0.000324676, No Iterations 2
smoothSolver:  Solving for Uy, Initial residual = 0.00364845, Final residual = 0.000309808, No Iterations 2
GAMG:  Solving for p, Initial residual = 0.047779, Final residual = 0.00379322, No Iterations 3
time step continuity errors : sum local = 4.53891e-05, global = 1.71729e-16, cumulative = 1.26822e-15
smoothSolver:  Solving for nuTilda, Initial residual = 0.00193539, Final residual = 3.90899e-05, No Iterations 4
ExecutionTime = 1.3 s  ClockTime = 1 s

Time = 72

smoothSolver:  Solving for Ux, Initial residual = 0.00517072, Final residual = 0.000315564, No Iterations 2
smoothSolver:  Solving for Uy, Initial residual = 0.00361775, Final residual = 0.000305124, No Iterations 2
GAMG:  Solving for p, Initial residual = 0.0457208, Final residual = 0.00394128, No Iterations 3
time step continuity errors : sum local = 4.71412e-05, global = 7.75085e-16, cumulative = 2.0433e-15
smoothSolver:  Solving for nuTilda, Initial residual = 0.00190695, Final residual = 3.88316e-05, No Iterations 4
ExecutionTime = 1.32 s  ClockTime = 1 s

Time = 73

smoothSolver:  Solving for Ux, Initial residual = 0.00506135, Final residual = 0.000306335, No Iterations 2
smoothSolver:  Solving for Uy, Initial residual = 0.00354963, Final residual = 0.000298381, No Iterations 2
GAMG:  Solving for p, Initial residual = 0.0432448, Final residual = 0.00170025, No Iterations 4
time step continuity errors : sum local = 2.05817e-05, global = 7.63606e-17, cumulative = 2.11966e-15
smoothSolver:  Solving for nuTilda, Initial residual = 0.00187669, Final residual = 3.85511e-05, No Iterations 4
ExecutionTime = 1.33 s  ClockTime = 1 s

Time = 74

smoothSolver:  Solving for Ux, Initial residual = 0.00498312, Final residual = 0.000298055, No Iterations 2
smoothSolver:  Solving for Uy, Initial residual = 0.00344536, Final residual = 0.00028904, No Iterations 2
GAMG:  Solving for p, Initial residual = 0.0402703, Final residual = 0.00324944, No Iterations 3
time step continuity errors : sum local = 3.89027e-05, global = 4.98196e-16, cumulative = 2.61786e-15
smoothSolver:  Solving for nuTilda, Initial residual = 0.00184663, Final residual = 3.82492e-05, No Iterations 4
ExecutionTime = 1.34 s  ClockTime = 1 s

Time = 75

smoothSolver:  Solving for Ux, Initial residual = 0.00489754, Final residual = 0.000290238, No Iterations 2
smoothSolver:  Solving for Uy, Initial residual = 0.00338449, Final residual = 0.000282986, No Iterations 2
GAMG:  Solving for p, Initial residual = 0.0387063, Final residual = 0.00295016, No Iterations 4
time step continuity errors : sum local = 3.54666e-05, global = -2.02203e-16, cumulative = 2.41565e-15
smoothSolver:  Solving for nuTilda, Initial residual = 0.00181421, Final residual = 3.79215e-05, No Iterations 4
ExecutionTime = 1.36 s  ClockTime = 1 s

Time = 76

smoothSolver:  Solving for Ux, Initial residual = 0.0048079, Final residual = 0.0002834, No Iterations 2
smoothSolver:  Solving for Uy, Initial residual = 0.00334951, Final residual = 0.000279103, No Iterations 2
GAMG:  Solving for p, Initial residual = 0.0366511, Final residual = 0.00231302, No Iterations 3
time step continuity errors : sum local = 2.77644e-05, global = -4.64208e-16, cumulative = 1.95145e-15
smoothSolver:  Solving for nuTilda, Initial residual = 0.0017814, Final residual = 3.75608e-05, No Iterations 4
ExecutionTime = 1.38 s  ClockTime = 1 s

Time = 77

smoothSolver:  Solving for Ux, Initial residual = 0.00470148, Final residual = 0.000276043, No Iterations 2
smoothSolver:  Solving for Uy, Initial residual = 0.00334115, Final residual = 0.000276826, No Iterations 2
GAMG:  Solving for p, Initial residual = 0.0349087, Final residual = 0.00259865, No Iterations 3
time step continuity errors : sum local = 3.10662e-05, global = -7.61314e-16, cumulative = 1.19013e-15
smoothSolver:  Solving for nuTilda, Initial residual = 0.00174697, Final residual = 3.71555e-05, No Iterations 4
ExecutionTime = 1.39 s  ClockTime = 1 s

Time = 78

smoothSolver:  Solving for Ux, Initial residual = 0.00458544, Final residual = 0.000268997, No Iterations 2
smoothSolver:  Solving for Uy, Initial residual = 0.0033447, Final residual = 0.000275746, No Iterations 2
GAMG:  Solving for p, Initial residual = 0.0329761, Final residual = 0.00268798, No Iterations 3
time step continuity errors : sum local = 3.21368e-05, global = 4.60277e-16, cumulative = 1.65041e-15
smoothSolver:  Solving for nuTilda, Initial residual = 0.00171197, Final residual = 3.67181e-05, No Iterations 4
ExecutionTime = 1.41 s  ClockTime = 1 s

Time = 79

smoothSolver:  Solving for Ux, Initial residual = 0.00448807, Final residual = 0.000263004, No Iterations 2
smoothSolver:  Solving for Uy, Initial residual = 0.00333075, Final residual = 0.000273346, No Iterations 2
GAMG:  Solving for p, Initial residual = 0.0316546, Final residual = 0.00278641, No Iterations 3
time step continuity errors : sum local = 3.32464e-05, global = 8.96939e-16, cumulative = 2.54735e-15
smoothSolver:  Solving for nuTilda, Initial residual = 0.00167594, Final residual = 3.62472e-05, No Iterations 4
ExecutionTime = 1.42 s  ClockTime = 1 s

Time = 80

smoothSolver:  Solving for Ux, Initial residual = 0.00442419, Final residual = 0.000258017, No Iterations 2
smoothSolver:  Solving for Uy, Initial residual = 0.00327814, Final residual = 0.000267781, No Iterations 2
GAMG:  Solving for p, Initial residual = 0.0301017, Final residual = 0.0021569, No Iterations 5
time step continuity errors : sum local = 2.60261e-05, global = 4.06697e-16, cumulative = 2.95405e-15
smoothSolver:  Solving for nuTilda, Initial residual = 0.00164021, Final residual = 3.57552e-05, No Iterations 4
ExecutionTime = 1.44 s  ClockTime = 1 s

Time = 81

smoothSolver:  Solving for Ux, Initial residual = 0.00439684, Final residual = 0.000254469, No Iterations 2
smoothSolver:  Solving for Uy, Initial residual = 0.00318484, Final residual = 0.000258856, No Iterations 2
GAMG:  Solving for p, Initial residual = 0.0284302, Final residual = 0.00253315, No Iterations 3
time step continuity errors : sum local = 3.01803e-05, global = 3.16053e-16, cumulative = 3.2701e-15
smoothSolver:  Solving for nuTilda, Initial residual = 0.00160417, Final residual = 3.52237e-05, No Iterations 4
ExecutionTime = 1.46 s  ClockTime = 1 s

Time = 82

smoothSolver:  Solving for Ux, Initial residual = 0.00432965, Final residual = 0.000250105, No Iterations 2
smoothSolver:  Solving for Uy, Initial residual = 0.00311479, Final residual = 0.000252064, No Iterations 2
GAMG:  Solving for p, Initial residual = 0.027369, Final residual = 0.00233824, No Iterations 3
time step continuity errors : sum local = 2.78678e-05, global = 4.0137e-16, cumulative = 3.67147e-15
smoothSolver:  Solving for nuTilda, Initial residual = 0.00156873, Final residual = 3.46687e-05, No Iterations 4
ExecutionTime = 1.47 s  ClockTime = 1 s

Time = 83

smoothSolver:  Solving for Ux, Initial residual = 0.00424455, Final residual = 0.000246159, No Iterations 2
smoothSolver:  Solving for Uy, Initial residual = 0.00306067, Final residual = 0.000247169, No Iterations 2
GAMG:  Solving for p, Initial residual = 0.0261058, Final residual = 0.00191814, No Iterations 4
time step continuity errors : sum local = 2.30014e-05, global = -4.71886e-16, cumulative = 3.19958e-15
smoothSolver:  Solving for nuTilda, Initial residual = 0.00153405, Final residual = 3.40879e-05, No Iterations 4
ExecutionTime = 1.49 s  ClockTime = 2 s

Time = 84

smoothSolver:  Solving for Ux, Initial residual = 0.00414647, Final residual = 0.000242594, No Iterations 2
smoothSolver:  Solving for Uy, Initial residual = 0.00303551, Final residual = 0.000244869, No Iterations 2
GAMG:  Solving for p, Initial residual = 0.0243534, Final residual = 0.0022867, No Iterations 3
time step continuity errors : sum local = 2.7376e-05, global = -3.7338e-16, cumulative = 2.8262e-15
smoothSolver:  Solving for nuTilda, Initial residual = 0.00150009, Final residual = 3.34698e-05, No Iterations 4
ExecutionTime = 1.51 s  ClockTime = 2 s

Time = 85

smoothSolver:  Solving for Ux, Initial residual = 0.00404798, Final residual = 0.000239305, No Iterations 2
smoothSolver:  Solving for Uy, Initial residual = 0.00302269, Final residual = 0.000243048, No Iterations 2
GAMG:  Solving for p, Initial residual = 0.02306, Final residual = 0.00206443, No Iterations 3
time step continuity errors : sum local = 2.45158e-05, global = 1.91697e-16, cumulative = 3.0179e-15
smoothSolver:  Solving for nuTilda, Initial residual = 0.00146672, Final residual = 3.28225e-05, No Iterations 4
ExecutionTime = 1.52 s  ClockTime = 2 s

Time = 86

smoothSolver:  Solving for Ux, Initial residual = 0.00395819, Final residual = 0.000236632, No Iterations 2
smoothSolver:  Solving for Uy, Initial residual = 0.00300071, Final residual = 0.000240191, No Iterations 2
GAMG:  Solving for p, Initial residual = 0.022415, Final residual = 0.00208529, No Iterations 3
time step continuity errors : sum local = 2.47753e-05, global = 2.79109e-16, cumulative = 3.29701e-15
smoothSolver:  Solving for nuTilda, Initial residual = 0.00143476, Final residual = 3.21796e-05, No Iterations 4
ExecutionTime = 1.54 s  ClockTime = 2 s

Time = 87

smoothSolver:  Solving for Ux, Initial residual = 0.00389806, Final residual = 0.000234921, No Iterations 2
smoothSolver:  Solving for Uy, Initial residual = 0.00295276, Final residual = 0.000235431, No Iterations 2
GAMG:  Solving for p, Initial residual = 0.0216662, Final residual = 0.000868084, No Iterations 5
time step continuity errors : sum local = 1.02545e-05, global = -7.01078e-16, cumulative = 2.59593e-15
smoothSolver:  Solving for nuTilda, Initial residual = 0.00140415, Final residual = 3.14854e-05, No Iterations 4
ExecutionTime = 1.55 s  ClockTime = 2 s

Time = 88

smoothSolver:  Solving for Ux, Initial residual = 0.00387506, Final residual = 0.000234896, No Iterations 2
smoothSolver:  Solving for Uy, Initial residual = 0.00287983, Final residual = 0.000228987, No Iterations 2
GAMG:  Solving for p, Initial residual = 0.0205506, Final residual = 0.00166201, No Iterations 4
time step continuity errors : sum local = 1.985e-05, global = 2.40275e-16, cumulative = 2.83621e-15
smoothSolver:  Solving for nuTilda, Initial residual = 0.00137574, Final residual = 3.07786e-05, No Iterations 4
ExecutionTime = 1.57 s  ClockTime = 2 s

Time = 89

smoothSolver:  Solving for Ux, Initial residual = 0.00383079, Final residual = 0.000234439, No Iterations 2
smoothSolver:  Solving for Uy, Initial residual = 0.00281216, Final residual = 0.000223076, No Iterations 2
GAMG:  Solving for p, Initial residual = 0.019729, Final residual = 0.00137459, No Iterations 5
time step continuity errors : sum local = 1.63693e-05, global = -2.88241e-16, cumulative = 2.54797e-15
smoothSolver:  Solving for nuTilda, Initial residual = 0.00134871, Final residual = 3.00481e-05, No Iterations 4
ExecutionTime = 1.59 s  ClockTime = 2 s

Time = 90

smoothSolver:  Solving for Ux, Initial residual = 0.00376314, Final residual = 0.000233764, No Iterations 2
smoothSolver:  Solving for Uy, Initial residual = 0.00275845, Final residual = 0.000217544, No Iterations 2
GAMG:  Solving for p, Initial residual = 0.0187757, Final residual = 0.00151214, No Iterations 3
time step continuity errors : sum local = 1.7938e-05, global = -7.2475e-16, cumulative = 1.82322e-15
smoothSolver:  Solving for nuTilda, Initial residual = 0.00132415, Final residual = 2.93078e-05, No Iterations 4
ExecutionTime = 1.6 s  ClockTime = 2 s

Time = 91

smoothSolver:  Solving for Ux, Initial residual = 0.00367357, Final residual = 0.000232863, No Iterations 2
smoothSolver:  Solving for Uy, Initial residual = 0.00272595, Final residual = 0.000213956, No Iterations 2
GAMG:  Solving for p, Initial residual = 0.0180983, Final residual = 0.00161527, No Iterations 3
time step continuity errors : sum local = 1.91223e-05, global = 3.66192e-16, cumulative = 2.18941e-15
smoothSolver:  Solving for nuTilda, Initial residual = 0.00130196, Final residual = 2.85533e-05, No Iterations 4
ExecutionTime = 1.62 s  ClockTime = 2 s

Time = 92

smoothSolver:  Solving for Ux, Initial residual = 0.0035785, Final residual = 0.000232235, No Iterations 2
smoothSolver:  Solving for Uy, Initial residual = 0.0026939, Final residual = 0.000210711, No Iterations 2
GAMG:  Solving for p, Initial residual = 0.0173669, Final residual = 0.000743875, No Iterations 5
time step continuity errors : sum local = 8.76522e-06, global = 4.68e-16, cumulative = 2.65741e-15
smoothSolver:  Solving for nuTilda, Initial residual = 0.00127918, Final residual = 2.77716e-05, No Iterations 4
ExecutionTime = 1.64 s  ClockTime = 2 s

Time = 93

smoothSolver:  Solving for Ux, Initial residual = 0.0034925, Final residual = 0.000231999, No Iterations 2
smoothSolver:  Solving for Uy, Initial residual = 0.00264813, Final residual = 0.000206973, No Iterations 2
GAMG:  Solving for p, Initial residual = 0.015878, Final residual = 0.00152736, No Iterations 3
time step continuity errors : sum local = 1.80028e-05, global = 5.43289e-17, cumulative = 2.71174e-15
smoothSolver:  Solving for nuTilda, Initial residual = 0.0012565, Final residual = 2.69754e-05, No Iterations 4
ExecutionTime = 1.65 s  ClockTime = 2 s

Time = 94

smoothSolver:  Solving for Ux, Initial residual = 0.0034294, Final residual = 0.00023233, No Iterations 2
smoothSolver:  Solving for Uy, Initial residual = 0.00260253, Final residual = 0.000203219, No Iterations 2
GAMG:  Solving for p, Initial residual = 0.0155135, Final residual = 0.000583368, No Iterations 5
time step continuity errors : sum local = 6.8565e-06, global = -5.32104e-16, cumulative = 2.17963e-15
smoothSolver:  Solving for nuTilda, Initial residual = 0.00123546, Final residual = 2.61959e-05, No Iterations 4
ExecutionTime = 1.67 s  ClockTime = 2 s

Time = 95

smoothSolver:  Solving for Ux, Initial residual = 0.00340176, Final residual = 0.000233869, No Iterations 2
smoothSolver:  Solving for Uy, Initial residual = 0.00255472, Final residual = 0.000199503, No Iterations 2
GAMG:  Solving for p, Initial residual = 0.0147802, Final residual = 0.00134726, No Iterations 4
time step continuity errors : sum local = 1.59364e-05, global = 3.14055e-16, cumulative = 2.49369e-15
smoothSolver:  Solving for nuTilda, Initial residual = 0.00121579, Final residual = 2.54158e-05, No Iterations 4
ExecutionTime = 1.69 s  ClockTime = 2 s

Time = 96

smoothSolver:  Solving for Ux, Initial residual = 0.00336997, Final residual = 0.000235095, No Iterations 2
smoothSolver:  Solving for Uy, Initial residual = 0.00251461, Final residual = 0.000195636, No Iterations 2
GAMG:  Solving for p, Initial residual = 0.0144289, Final residual = 0.00107871, No Iterations 4
time step continuity errors : sum local = 1.28193e-05, global = 7.70038e-18, cumulative = 2.50139e-15
smoothSolver:  Solving for nuTilda, Initial residual = 0.00119754, Final residual = 2.46505e-05, No Iterations 4
ExecutionTime = 1.71 s  ClockTime = 2 s

Time = 97

smoothSolver:  Solving for Ux, Initial residual = 0.00331916, Final residual = 0.000235759, No Iterations 2
smoothSolver:  Solving for Uy, Initial residual = 0.00247829, Final residual = 0.000191611, No Iterations 2
GAMG:  Solving for p, Initial residual = 0.0139462, Final residual = 0.00136594, No Iterations 3
time step continuity errors : sum local = 1.60563e-05, global = 5.43089e-16, cumulative = 3.04448e-15
smoothSolver:  Solving for nuTilda, Initial residual = 0.0011807, Final residual = 2.38957e-05, No Iterations 4
ExecutionTime = 1.72 s  ClockTime = 2 s

Time = 98

smoothSolver:  Solving for Ux, Initial residual = 0.00324848, Final residual = 0.00023594, No Iterations 2
smoothSolver:  Solving for Uy, Initial residual = 0.00244349, Final residual = 0.000187781, No Iterations 2
GAMG:  Solving for p, Initial residual = 0.0136337, Final residual = 0.00127848, No Iterations 3
time step continuity errors : sum local = 1.50599e-05, global = -1.54965e-16, cumulative = 2.88951e-15
smoothSolver:  Solving for nuTilda, Initial residual = 0.00116522, Final residual = 2.31595e-05, No Iterations 4
ExecutionTime = 1.74 s  ClockTime = 2 s

Time = 99

smoothSolver:  Solving for Ux, Initial residual = 0.0031779, Final residual = 0.000236059, No Iterations 2
smoothSolver:  Solving for Uy, Initial residual = 0.00240345, Final residual = 0.000183944, No Iterations 2
GAMG:  Solving for p, Initial residual = 0.0128918, Final residual = 0.000606163, No Iterations 5
time step continuity errors : sum local = 7.08455e-06, global = -1.15598e-16, cumulative = 2.77391e-15
smoothSolver:  Solving for nuTilda, Initial residual = 0.00115043, Final residual = 2.24302e-05, No Iterations 4
ExecutionTime = 1.76 s  ClockTime = 2 s

Time = 100

smoothSolver:  Solving for Ux, Initial residual = 0.00312871, Final residual = 0.000236727, No Iterations 2
smoothSolver:  Solving for Uy, Initial residual = 0.0023542, Final residual = 0.000180301, No Iterations 2
GAMG:  Solving for p, Initial residual = 0.0118653, Final residual = 0.00052533, No Iterations 5
time step continuity errors : sum local = 6.13522e-06, global = 3.99289e-16, cumulative = 3.1732e-15
smoothSolver:  Solving for nuTilda, Initial residual = 0.00113593, Final residual = 2.1722e-05, No Iterations 4
ExecutionTime = 1.81 s  ClockTime = 2 s

Time = 101

smoothSolver:  Solving for Ux, Initial residual = 0.00309352, Final residual = 0.000237814, No Iterations 2
smoothSolver:  Solving for Uy, Initial residual = 0.00231774, Final residual = 0.000177557, No Iterations 2
GAMG:  Solving for p, Initial residual = 0.010902, Final residual = 0.00102278, No Iterations 3
time step continuity errors : sum local = 1.19529e-05, global = 2.28528e-16, cumulative = 3.40173e-15
smoothSolver:  Solving for nuTilda, Initial residual = 0.00112196, Final residual = 2.10238e-05, No Iterations 4
ExecutionTime = 1.82 s  ClockTime = 2 s

Time = 102

smoothSolver:  Solving for Ux, Initial residual = 0.00305219, Final residual = 0.000238272, No Iterations 2
smoothSolver:  Solving for Uy, Initial residual = 0.00229504, Final residual = 0.000175065, No Iterations 2
GAMG:  Solving for p, Initial residual = 0.0110122, Final residual = 0.00102269, No Iterations 4
time step continuity errors : sum local = 1.20452e-05, global = -3.78068e-17, cumulative = 3.36392e-15
smoothSolver:  Solving for nuTilda, Initial residual = 0.00110831, Final residual = 2.03461e-05, No Iterations 4
ExecutionTime = 1.84 s  ClockTime = 2 s

Time = 103

smoothSolver:  Solving for Ux, Initial residual = 0.00302992, Final residual = 0.000239041, No Iterations 2
smoothSolver:  Solving for Uy, Initial residual = 0.00227216, Final residual = 0.000172376, No Iterations 2
GAMG:  Solving for p, Initial residual = 0.0109269, Final residual = 0.000542988, No Iterations 4
time step continuity errors : sum local = 6.42567e-06, global = 3.28792e-17, cumulative = 3.3968e-15
smoothSolver:  Solving for nuTilda, Initial residual = 0.00109466, Final residual = 1.96809e-05, No Iterations 4
ExecutionTime = 1.86 s  ClockTime = 2 s

Time = 104

smoothSolver:  Solving for Ux, Initial residual = 0.00300865, Final residual = 0.00023946, No Iterations 2
smoothSolver:  Solving for Uy, Initial residual = 0.00224905, Final residual = 0.000169377, No Iterations 2
GAMG:  Solving for p, Initial residual = 0.0106986, Final residual = 0.00106867, No Iterations 3
time step continuity errors : sum local = 1.25103e-05, global = -1.96876e-16, cumulative = 3.19993e-15
smoothSolver:  Solving for nuTilda, Initial residual = 0.00108115, Final residual = 1.90402e-05, No Iterations 4
ExecutionTime = 1.87 s  ClockTime = 2 s

Time = 105

smoothSolver:  Solving for Ux, Initial residual = 0.00297758, Final residual = 0.000239535, No Iterations 2
smoothSolver:  Solving for Uy, Initial residual = 0.00222801, Final residual = 0.000166582, No Iterations 2
GAMG:  Solving for p, Initial residual = 0.0102618, Final residual = 0.000950918, No Iterations 4
time step continuity errors : sum local = 1.11777e-05, global = -2.74322e-16, cumulative = 2.92561e-15
smoothSolver:  Solving for nuTilda, Initial residual = 0.0010672, Final residual = 1.84177e-05, No Iterations 4
ExecutionTime = 1.89 s  ClockTime = 2 s

Time = 106

smoothSolver:  Solving for Ux, Initial residual = 0.00295653, Final residual = 0.000239689, No Iterations 2
smoothSolver:  Solving for Uy, Initial residual = 0.00219862, Final residual = 0.000163299, No Iterations 2
GAMG:  Solving for p, Initial residual = 0.00966924, Final residual = 0.000704894, No Iterations 5
time step continuity errors : sum local = 8.31319e-06, global = 7.54075e-17, cumulative = 3.00101e-15
smoothSolver:  Solving for nuTilda, Initial residual = 0.00105319, Final residual = 0.00010501, No Iterations 2
ExecutionTime = 1.91 s  ClockTime = 2 s

Time = 107

smoothSolver:  Solving for Ux, Initial residual = 0.00293125, Final residual = 0.000239522, No Iterations 2
smoothSolver:  Solving for Uy, Initial residual = 0.00216114, Final residual = 0.0001597, No Iterations 2
GAMG:  Solving for p, Initial residual = 0.00870418, Final residual = 0.000644094, No Iterations 5
time step continuity errors : sum local = 7.57476e-06, global = 3.4175e-16, cumulative = 3.34276e-15
smoothSolver:  Solving for nuTilda, Initial residual = 0.00103957, Final residual = 0.000101998, No Iterations 2
ExecutionTime = 1.92 s  ClockTime = 2 s

Time = 108

smoothSolver:  Solving for Ux, Initial residual = 0.0028939, Final residual = 0.000238662, No Iterations 2
smoothSolver:  Solving for Uy, Initial residual = 0.00212925, Final residual = 0.000156514, No Iterations 2
GAMG:  Solving for p, Initial residual = 0.00841429, Final residual = 0.000761332, No Iterations 4
time step continuity errors : sum local = 8.92219e-06, global = 3.45014e-16, cumulative = 3.68778e-15
smoothSolver:  Solving for nuTilda, Initial residual = 0.00102587, Final residual = 9.94307e-05, No Iterations 2
ExecutionTime = 1.94 s  ClockTime = 2 s

Time = 109

smoothSolver:  Solving for Ux, Initial residual = 0.00285535, Final residual = 0.000237397, No Iterations 2
smoothSolver:  Solving for Uy, Initial residual = 0.00210659, Final residual = 0.000154077, No Iterations 2
GAMG:  Solving for p, Initial residual = 0.008299, Final residual = 0.000682903, No Iterations 4
time step continuity errors : sum local = 8.00152e-06, global = -6.33057e-17, cumulative = 3.62447e-15
smoothSolver:  Solving for nuTilda, Initial residual = 0.00101217, Final residual = 9.69842e-05, No Iterations 2
ExecutionTime = 1.96 s  ClockTime = 2 s

Time = 110

smoothSolver:  Solving for Ux, Initial residual = 0.002825, Final residual = 0.000235872, No Iterations 2
smoothSolver:  Solving for Uy, Initial residual = 0.00208838, Final residual = 0.000151782, No Iterations 2
GAMG:  Solving for p, Initial residual = 0.00855998, Final residual = 0.000722943, No Iterations 4
time step continuity errors : sum local = 8.46165e-06, global = 5.41366e-16, cumulative = 4.16584e-15
smoothSolver:  Solving for nuTilda, Initial residual = 0.000997429, Final residual = 9.4619e-05, No Iterations 2
ExecutionTime = 1.97 s  ClockTime = 2 s

Time = 111

smoothSolver:  Solving for Ux, Initial residual = 0.00280445, Final residual = 0.000234215, No Iterations 2
smoothSolver:  Solving for Uy, Initial residual = 0.00207292, Final residual = 0.00014971, No Iterations 2
GAMG:  Solving for p, Initial residual = 0.00827153, Final residual = 0.000816019, No Iterations 4
time step continuity errors : sum local = 9.49397e-06, global = -9.87718e-17, cumulative = 4.06707e-15
smoothSolver:  Solving for nuTilda, Initial residual = 0.000982735, Final residual = 9.23302e-05, No Iterations 2
ExecutionTime = 1.99 s  ClockTime = 2 s

Time = 112

smoothSolver:  Solving for Ux, Initial residual = 0.00278196, Final residual = 0.000232165, No Iterations 2
smoothSolver:  Solving for Uy, Initial residual = 0.00205571, Final residual = 0.000147317, No Iterations 2
GAMG:  Solving for p, Initial residual = 0.00794421, Final residual = 0.000501068, No Iterations 5
time step continuity errors : sum local = 5.86261e-06, global = 4.93516e-16, cumulative = 4.56058e-15
smoothSolver:  Solving for nuTilda, Initial residual = 0.000968004, Final residual = 9.0125e-05, No Iterations 2
ExecutionTime = 2.01 s  ClockTime = 2 s

Time = 113

smoothSolver:  Solving for Ux, Initial residual = 0.00275104, Final residual = 0.000229693, No Iterations 2
smoothSolver:  Solving for Uy, Initial residual = 0.00202828, Final residual = 0.000144311, No Iterations 2
GAMG:  Solving for p, Initial residual = 0.00722069, Final residual = 0.000474959, No Iterations 5
time step continuity errors : sum local = 5.53996e-06, global = -1.72891e-16, cumulative = 4.38769e-15
smoothSolver:  Solving for nuTilda, Initial residual = 0.000953012, Final residual = 8.79652e-05, No Iterations 2
ExecutionTime = 2.02 s  ClockTime = 2 s

Time = 114

smoothSolver:  Solving for Ux, Initial residual = 0.002706, Final residual = 0.000226631, No Iterations 2
smoothSolver:  Solving for Uy, Initial residual = 0.00199713, Final residual = 0.000141499, No Iterations 2
GAMG:  Solving for p, Initial residual = 0.00702151, Final residual = 0.000464347, No Iterations 5
time step continuity errors : sum local = 5.42293e-06, global = 4.69943e-16, cumulative = 4.85763e-15
smoothSolver:  Solving for nuTilda, Initial residual = 0.000937542, Final residual = 8.58629e-05, No Iterations 2
ExecutionTime = 2.04 s  ClockTime = 2 s

Time = 115

smoothSolver:  Solving for Ux, Initial residual = 0.00265868, Final residual = 0.000223272, No Iterations 2
smoothSolver:  Solving for Uy, Initial residual = 0.00196425, Final residual = 0.000138916, No Iterations 2
GAMG:  Solving for p, Initial residual = 0.00671978, Final residual = 0.000448047, No Iterations 5
time step continuity errors : sum local = 5.20874e-06, global = -2.9653e-17, cumulative = 4.82798e-15
smoothSolver:  Solving for nuTilda, Initial residual = 0.000922001, Final residual = 8.38021e-05, No Iterations 2
ExecutionTime = 2.06 s  ClockTime = 2 s

Time = 116

smoothSolver:  Solving for Ux, Initial residual = 0.00261716, Final residual = 0.000219712, No Iterations 2
smoothSolver:  Solving for Uy, Initial residual = 0.00193175, Final residual = 0.000136381, No Iterations 2
GAMG:  Solving for p, Initial residual = 0.00682644, Final residual = 0.000334742, No Iterations 4
time step continuity errors : sum local = 3.89716e-06, global = 2.88327e-16, cumulative = 5.11631e-15
smoothSolver:  Solving for nuTilda, Initial residual = 0.000906159, Final residual = 8.18133e-05, No Iterations 2
ExecutionTime = 2.07 s  ClockTime = 2 s

Time = 117

smoothSolver:  Solving for Ux, Initial residual = 0.00258009, Final residual = 0.000215857, No Iterations 2
smoothSolver:  Solving for Uy, Initial residual = 0.00190668, Final residual = 0.000134298, No Iterations 2
GAMG:  Solving for p, Initial residual = 0.00662954, Final residual = 0.000327998, No Iterations 4
time step continuity errors : sum local = 3.80597e-06, global = -2.30353e-16, cumulative = 4.88596e-15
smoothSolver:  Solving for nuTilda, Initial residual = 0.000890141, Final residual = 7.98412e-05, No Iterations 2
ExecutionTime = 2.09 s  ClockTime = 2 s

Time = 118

smoothSolver:  Solving for Ux, Initial residual = 0.00254447, Final residual = 0.000211763, No Iterations 2
smoothSolver:  Solving for Uy, Initial residual = 0.00188536, Final residual = 0.000132205, No Iterations 2
GAMG:  Solving for p, Initial residual = 0.00661843, Final residual = 0.000312428, No Iterations 4
time step continuity errors : sum local = 3.6316e-06, global = 6.05066e-16, cumulative = 5.49102e-15
smoothSolver:  Solving for nuTilda, Initial residual = 0.000873676, Final residual = 7.79285e-05, No Iterations 2
ExecutionTime = 2.11 s  ClockTime = 2 s

Time = 119

smoothSolver:  Solving for Ux, Initial residual = 0.00250405, Final residual = 0.000207344, No Iterations 2
smoothSolver:  Solving for Uy, Initial residual = 0.00186356, Final residual = 0.000130043, No Iterations 2
GAMG:  Solving for p, Initial residual = 0.00622444, Final residual = 0.000297342, No Iterations 4
time step continuity errors : sum local = 3.44137e-06, global = -1.20236e-16, cumulative = 5.37079e-15
smoothSolver:  Solving for nuTilda, Initial residual = 0.000857572, Final residual = 7.60552e-05, No Iterations 2
ExecutionTime = 2.12 s  ClockTime = 2 s

Time = 120

smoothSolver:  Solving for Ux, Initial residual = 0.002457, Final residual = 0.000202564, No Iterations 2
smoothSolver:  Solving for Uy, Initial residual = 0.00183886, Final residual = 0.000127888, No Iterations 2
GAMG:  Solving for p, Initial residual = 0.00613519, Final residual = 0.0002933, No Iterations 4
time step continuity errors : sum local = 3.39277e-06, global = 1.8443e-16, cumulative = 5.55522e-15
smoothSolver:  Solving for nuTilda, Initial residual = 0.000840941, Final residual = 7.42461e-05, No Iterations 2
ExecutionTime = 2.14 s  ClockTime = 2 s

Time = 121

smoothSolver:  Solving for Ux, Initial residual = 0.00240656, Final residual = 0.000197537, No Iterations 2
smoothSolver:  Solving for Uy, Initial residual = 0.0018089, Final residual = 0.000125509, No Iterations 2
GAMG:  Solving for p, Initial residual = 0.00583637, Final residual = 0.000301983, No Iterations 4
time step continuity errors : sum local = 3.47114e-06, global = 3.87046e-16, cumulative = 5.94226e-15
smoothSolver:  Solving for nuTilda, Initial residual = 0.000824393, Final residual = 7.2462e-05, No Iterations 2
ExecutionTime = 2.16 s  ClockTime = 2 s

Time = 122

smoothSolver:  Solving for Ux, Initial residual = 0.00235663, Final residual = 0.000192336, No Iterations 2
smoothSolver:  Solving for Uy, Initial residual = 0.00177462, Final residual = 0.000122876, No Iterations 2
GAMG:  Solving for p, Initial residual = 0.00587879, Final residual = 0.000526341, No Iterations 4
time step continuity errors : sum local = 6.12821e-06, global = 6.13345e-16, cumulative = 6.55561e-15
smoothSolver:  Solving for nuTilda, Initial residual = 0.000807586, Final residual = 7.07247e-05, No Iterations 2
ExecutionTime = 2.17 s  ClockTime = 2 s

Time = 123

smoothSolver:  Solving for Ux, Initial residual = 0.0023104, Final residual = 0.000187047, No Iterations 2
smoothSolver:  Solving for Uy, Initial residual = 0.0017388, Final residual = 0.000120263, No Iterations 2
GAMG:  Solving for p, Initial residual = 0.00556959, Final residual = 0.000283318, No Iterations 4
time step continuity errors : sum local = 3.25618e-06, global = 2.4509e-16, cumulative = 6.8007e-15
smoothSolver:  Solving for nuTilda, Initial residual = 0.000790992, Final residual = 6.90195e-05, No Iterations 2
ExecutionTime = 2.19 s  ClockTime = 2 s

Time = 124

smoothSolver:  Solving for Ux, Initial residual = 0.00226207, Final residual = 0.000181548, No Iterations 2
smoothSolver:  Solving for Uy, Initial residual = 0.00171115, Final residual = 0.000117948, No Iterations 2
GAMG:  Solving for p, Initial residual = 0.00560034, Final residual = 0.000264958, No Iterations 4
time step continuity errors : sum local = 3.04719e-06, global = -4.49562e-16, cumulative = 6.35114e-15
smoothSolver:  Solving for nuTilda, Initial residual = 0.000774251, Final residual = 6.73702e-05, No Iterations 2
ExecutionTime = 2.21 s  ClockTime = 2 s

Time = 125

smoothSolver:  Solving for Ux, Initial residual = 0.0022134, Final residual = 0.000175907, No Iterations 2
smoothSolver:  Solving for Uy, Initial residual = 0.00168641, Final residual = 0.000115799, No Iterations 2
GAMG:  Solving for p, Initial residual = 0.00534674, Final residual = 0.000444675, No Iterations 4
time step continuity errors : sum local = 5.12858e-06, global = 3.91623e-16, cumulative = 6.74276e-15
smoothSolver:  Solving for nuTilda, Initial residual = 0.000757563, Final residual = 6.57262e-05, No Iterations 2
ExecutionTime = 2.22 s  ClockTime = 2 s

Time = 126

smoothSolver:  Solving for Ux, Initial residual = 0.00216572, Final residual = 0.000170113, No Iterations 2
smoothSolver:  Solving for Uy, Initial residual = 0.00166247, Final residual = 0.000113787, No Iterations 2
GAMG:  Solving for p, Initial residual = 0.00540674, Final residual = 0.000426018, No Iterations 4
time step continuity errors : sum local = 4.92678e-06, global = 1.15317e-16, cumulative = 6.85807e-15
smoothSolver:  Solving for nuTilda, Initial residual = 0.000740643, Final residual = 6.41324e-05, No Iterations 2
ExecutionTime = 2.24 s  ClockTime = 2 s

Time = 127

smoothSolver:  Solving for Ux, Initial residual = 0.00211694, Final residual = 0.000164226, No Iterations 2
smoothSolver:  Solving for Uy, Initial residual = 0.00163835, Final residual = 0.000111741, No Iterations 2
GAMG:  Solving for p, Initial residual = 0.00517671, Final residual = 0.000419529, No Iterations 4
time step continuity errors : sum local = 4.83235e-06, global = 6.25433e-16, cumulative = 7.48351e-15
smoothSolver:  Solving for nuTilda, Initial residual = 0.000723587, Final residual = 6.25395e-05, No Iterations 2
ExecutionTime = 2.26 s  ClockTime = 2 s

Time = 128

smoothSolver:  Solving for Ux, Initial residual = 0.00206818, Final residual = 0.000158284, No Iterations 2
smoothSolver:  Solving for Uy, Initial residual = 0.0016125, Final residual = 0.000109546, No Iterations 2
GAMG:  Solving for p, Initial residual = 0.00525613, Final residual = 0.000419936, No Iterations 4
time step continuity errors : sum local = 4.84796e-06, global = 4.33925e-16, cumulative = 7.91743e-15
smoothSolver:  Solving for nuTilda, Initial residual = 0.000706608, Final residual = 6.09993e-05, No Iterations 2
ExecutionTime = 2.28 s  ClockTime = 2 s

Time = 129

smoothSolver:  Solving for Ux, Initial residual = 0.00202016, Final residual = 0.000152355, No Iterations 2
smoothSolver:  Solving for Uy, Initial residual = 0.00158491, Final residual = 0.000107384, No Iterations 2
GAMG:  Solving for p, Initial residual = 0.00504467, Final residual = 0.000415952, No Iterations 4
time step continuity errors : sum local = 4.76874e-06, global = 3.72202e-16, cumulative = 8.28963e-15
smoothSolver:  Solving for nuTilda, Initial residual = 0.000689909, Final residual = 5.94799e-05, No Iterations 2
ExecutionTime = 2.29 s  ClockTime = 2 s

Time = 130

smoothSolver:  Solving for Ux, Initial residual = 0.001974, Final residual = 0.000146445, No Iterations 2
smoothSolver:  Solving for Uy, Initial residual = 0.00155765, Final residual = 0.000105152, No Iterations 2
GAMG:  Solving for p, Initial residual = 0.00512826, Final residual = 0.000402296, No Iterations 4
time step continuity errors : sum local = 4.60663e-06, global = 4.23531e-16, cumulative = 8.71317e-15
smoothSolver:  Solving for nuTilda, Initial residual = 0.000673385, Final residual = 5.80129e-05, No Iterations 2
ExecutionTime = 2.31 s  ClockTime = 2 s

Time = 131

smoothSolver:  Solving for Ux, Initial residual = 0.00193011, Final residual = 0.000140555, No Iterations 2
smoothSolver:  Solving for Uy, Initial residual = 0.00153034, Final residual = 0.000102933, No Iterations 2
GAMG:  Solving for p, Initial residual = 0.00491231, Final residual = 0.000385525, No Iterations 4
time step continuity errors : sum local = 4.41908e-06, global = -4.91319e-16, cumulative = 8.22185e-15
smoothSolver:  Solving for nuTilda, Initial residual = 0.000657153, Final residual = 5.65622e-05, No Iterations 2
ExecutionTime = 2.32 s  ClockTime = 2 s

Time = 132

smoothSolver:  Solving for Ux, Initial residual = 0.00188791, Final residual = 0.000134712, No Iterations 2
smoothSolver:  Solving for Uy, Initial residual = 0.00150562, Final residual = 0.000100982, No Iterations 2
GAMG:  Solving for p, Initial residual = 0.00497145, Final residual = 0.000370409, No Iterations 4
time step continuity errors : sum local = 4.2808e-06, global = -2.61763e-16, cumulative = 7.96008e-15
smoothSolver:  Solving for nuTilda, Initial residual = 0.00064067, Final residual = 5.51476e-05, No Iterations 2
ExecutionTime = 2.34 s  ClockTime = 2 s

Time = 133

smoothSolver:  Solving for Ux, Initial residual = 0.00184639, Final residual = 0.000128895, No Iterations 2
smoothSolver:  Solving for Uy, Initial residual = 0.00148122, Final residual = 9.90113e-05, No Iterations 2
GAMG:  Solving for p, Initial residual = 0.00479012, Final residual = 0.000222712, No Iterations 4
time step continuity errors : sum local = 2.55668e-06, global = -4.39581e-16, cumulative = 7.5205e-15
smoothSolver:  Solving for nuTilda, Initial residual = 0.000624496, Final residual = 5.37325e-05, No Iterations 2
ExecutionTime = 2.36 s  ClockTime = 2 s

Time = 134

smoothSolver:  Solving for Ux, Initial residual = 0.00180414, Final residual = 0.000123156, No Iterations 2
[...]
smoothSolver:  Solving for Uy, Initial residual = 1.151e-06, Final residual = 1.02307e-07, No Iterations 2
GAMG:  Solving for p, Initial residual = 0.000683869, Final residual = 2.30389e-05, No Iterations 2
time step continuity errors : sum local = 2.70332e-07, global = -7.68626e-17, cumulative = 4.13676e-14
smoothSolver:  Solving for nuTilda, Initial residual = 5.46305e-07, Final residual = 1.4817e-08, No Iterations 2
ExecutionTime = 38.21 s  ClockTime = 38 s

Time = 2468

smoothSolver:  Solving for Ux, Initial residual = 1.46384e-06, Final residual = 8.92397e-08, No Iterations 2
smoothSolver:  Solving for Uy, Initial residual = 1.14866e-06, Final residual = 1.02925e-07, No Iterations 2
GAMG:  Solving for p, Initial residual = 0.000699756, Final residual = 2.30766e-05, No Iterations 2
time step continuity errors : sum local = 2.72581e-07, global = -1.39304e-16, cumulative = 4.12283e-14
smoothSolver:  Solving for nuTilda, Initial residual = 4.32478e-07, Final residual = 1.57335e-08, No Iterations 2
ExecutionTime = 38.22 s  ClockTime = 38 s

Time = 2469

smoothSolver:  Solving for Ux, Initial residual = 1.54918e-06, Final residual = 8.97172e-08, No Iterations 2
smoothSolver:  Solving for Uy, Initial residual = 1.151e-06, Final residual = 1.02307e-07, No Iterations 2
GAMG:  Solving for p, Initial residual = 0.000683869, Final residual = 2.30389e-05, No Iterations 2
time step continuity errors : sum local = 2.70333e-07, global = 7.07091e-16, cumulative = 4.19354e-14
smoothSolver:  Solving for nuTilda, Initial residual = 5.46305e-07, Final residual = 1.4817e-08, No Iterations 2
ExecutionTime = 38.24 s  ClockTime = 38 s

Time = 2470

smoothSolver:  Solving for Ux, Initial residual = 1.46384e-06, Final residual = 8.92397e-08, No Iterations 2
smoothSolver:  Solving for Uy, Initial residual = 1.14866e-06, Final residual = 1.02925e-07, No Iterations 2
GAMG:  Solving for p, Initial residual = 0.000699756, Final residual = 2.30766e-05, No Iterations 2
time step continuity errors : sum local = 2.7258e-07, global = 6.88512e-17, cumulative = 4.20042e-14
smoothSolver:  Solving for nuTilda, Initial residual = 4.32478e-07, Final residual = 1.57335e-08, No Iterations 2
ExecutionTime = 38.25 s  ClockTime = 38 s

Time = 2471

smoothSolver:  Solving for Ux, Initial residual = 1.54918e-06, Final residual = 8.97172e-08, No Iterations 2
smoothSolver:  Solving for Uy, Initial residual = 1.151e-06, Final residual = 1.02307e-07, No Iterations 2
GAMG:  Solving for p, Initial residual = 0.000683869, Final residual = 2.30389e-05, No Iterations 2
time step continuity errors : sum local = 2.70334e-07, global = -1.73684e-16, cumulative = 4.18306e-14
smoothSolver:  Solving for nuTilda, Initial residual = 5.46305e-07, Final residual = 1.4817e-08, No Iterations 2
ExecutionTime = 38.26 s  ClockTime = 38 s

Time = 2472

smoothSolver:  Solving for Ux, Initial residual = 1.46384e-06, Final residual = 8.92397e-08, No Iterations 2
smoothSolver:  Solving for Uy, Initial residual = 1.14866e-06, Final residual = 1.02925e-07, No Iterations 2
GAMG:  Solving for p, Initial residual = 0.000699756, Final residual = 2.30766e-05, No Iterations 2
time step continuity errors : sum local = 2.72578e-07, global = -9.35652e-17, cumulative = 4.1737e-14
smoothSolver:  Solving for nuTilda, Initial residual = 4.32478e-07, Final residual = 1.57335e-08, No Iterations 2
ExecutionTime = 38.28 s  ClockTime = 38 s

Time = 2473

smoothSolver:  Solving for Ux, Initial residual = 1.54918e-06, Final residual = 8.97172e-08, No Iterations 2
smoothSolver:  Solving for Uy, Initial residual = 1.151e-06, Final residual = 1.02307e-07, No Iterations 2
GAMG:  Solving for p, Initial residual = 0.000683869, Final residual = 2.30388e-05, No Iterations 2
time step continuity errors : sum local = 2.70336e-07, global = 7.23457e-16, cumulative = 4.24604e-14
smoothSolver:  Solving for nuTilda, Initial residual = 5.46305e-07, Final residual = 1.4817e-08, No Iterations 2
ExecutionTime = 38.29 s  ClockTime = 38 s

Time = 2474

smoothSolver:  Solving for Ux, Initial residual = 1.46384e-06, Final residual = 8.92397e-08, No Iterations 2
smoothSolver:  Solving for Uy, Initial residual = 1.14866e-06, Final residual = 1.02925e-07, No Iterations 2
GAMG:  Solving for p, Initial residual = 0.000699756, Final residual = 2.30766e-05, No Iterations 2
time step continuity errors : sum local = 2.72577e-07, global = -9.3169e-17, cumulative = 4.23673e-14
smoothSolver:  Solving for nuTilda, Initial residual = 4.32478e-07, Final residual = 1.57335e-08, No Iterations 2
ExecutionTime = 38.31 s  ClockTime = 38 s

Time = 2475

smoothSolver:  Solving for Ux, Initial residual = 1.54918e-06, Final residual = 8.97172e-08, No Iterations 2
smoothSolver:  Solving for Uy, Initial residual = 1.151e-06, Final residual = 1.02307e-07, No Iterations 2
GAMG:  Solving for p, Initial residual = 0.000683869, Final residual = 2.30388e-05, No Iterations 2
time step continuity errors : sum local = 2.70337e-07, global = -9.5443e-17, cumulative = 4.22718e-14
smoothSolver:  Solving for nuTilda, Initial residual = 5.46305e-07, Final residual = 1.4817e-08, No Iterations 2
ExecutionTime = 38.32 s  ClockTime = 38 s

Time = 2476

smoothSolver:  Solving for Ux, Initial residual = 1.46384e-06, Final residual = 8.92397e-08, No Iterations 2
smoothSolver:  Solving for Uy, Initial residual = 1.14866e-06, Final residual = 1.02925e-07, No Iterations 2
GAMG:  Solving for p, Initial residual = 0.000699756, Final residual = 2.30765e-05, No Iterations 2
time step continuity errors : sum local = 2.72575e-07, global = -2.11842e-16, cumulative = 4.206e-14
smoothSolver:  Solving for nuTilda, Initial residual = 4.32478e-07, Final residual = 1.57335e-08, No Iterations 2
ExecutionTime = 38.33 s  ClockTime = 38 s

Time = 2477

smoothSolver:  Solving for Ux, Initial residual = 1.54918e-06, Final residual = 8.97172e-08, No Iterations 2
smoothSolver:  Solving for Uy, Initial residual = 1.151e-06, Final residual = 1.02307e-07, No Iterations 2
GAMG:  Solving for p, Initial residual = 0.000683868, Final residual = 2.30388e-05, No Iterations 2
time step continuity errors : sum local = 2.70338e-07, global = -3.35529e-16, cumulative = 4.17245e-14
smoothSolver:  Solving for nuTilda, Initial residual = 5.46305e-07, Final residual = 1.4817e-08, No Iterations 2
ExecutionTime = 38.35 s  ClockTime = 38 s

Time = 2478

smoothSolver:  Solving for Ux, Initial residual = 1.46384e-06, Final residual = 8.92397e-08, No Iterations 2
smoothSolver:  Solving for Uy, Initial residual = 1.14866e-06, Final residual = 1.02925e-07, No Iterations 2
GAMG:  Solving for p, Initial residual = 0.000699756, Final residual = 2.30765e-05, No Iterations 2
time step continuity errors : sum local = 2.72574e-07, global = 2.17101e-16, cumulative = 4.19416e-14
smoothSolver:  Solving for nuTilda, Initial residual = 4.32478e-07, Final residual = 1.57335e-08, No Iterations 2
ExecutionTime = 38.36 s  ClockTime = 38 s

Time = 2479

smoothSolver:  Solving for Ux, Initial residual = 1.54918e-06, Final residual = 8.97172e-08, No Iterations 2
smoothSolver:  Solving for Uy, Initial residual = 1.151e-06, Final residual = 1.02307e-07, No Iterations 2
GAMG:  Solving for p, Initial residual = 0.000683868, Final residual = 2.30388e-05, No Iterations 2
time step continuity errors : sum local = 2.70339e-07, global = -2.5989e-16, cumulative = 4.16817e-14
smoothSolver:  Solving for nuTilda, Initial residual = 5.46305e-07, Final residual = 1.4817e-08, No Iterations 2
ExecutionTime = 38.38 s  ClockTime = 38 s

Time = 2480

smoothSolver:  Solving for Ux, Initial residual = 1.46384e-06, Final residual = 8.92397e-08, No Iterations 2
smoothSolver:  Solving for Uy, Initial residual = 1.14866e-06, Final residual = 1.02925e-07, No Iterations 2
GAMG:  Solving for p, Initial residual = 0.000699756, Final residual = 2.30765e-05, No Iterations 2
time step continuity errors : sum local = 2.72573e-07, global = 1.93677e-16, cumulative = 4.18754e-14
smoothSolver:  Solving for nuTilda, Initial residual = 4.32478e-07, Final residual = 1.57335e-08, No Iterations 2
ExecutionTime = 38.39 s  ClockTime = 38 s

Time = 2481

smoothSolver:  Solving for Ux, Initial residual = 1.54918e-06, Final residual = 8.97172e-08, No Iterations 2
smoothSolver:  Solving for Uy, Initial residual = 1.151e-06, Final residual = 1.02307e-07, No Iterations 2
GAMG:  Solving for p, Initial residual = 0.000683868, Final residual = 2.30388e-05, No Iterations 2
time step continuity errors : sum local = 2.7034e-07, global = -2.67067e-16, cumulative = 4.16083e-14
smoothSolver:  Solving for nuTilda, Initial residual = 5.46305e-07, Final residual = 1.4817e-08, No Iterations 2
ExecutionTime = 38.41 s  ClockTime = 38 s

Time = 2482

smoothSolver:  Solving for Ux, Initial residual = 1.46384e-06, Final residual = 8.92397e-08, No Iterations 2
smoothSolver:  Solving for Uy, Initial residual = 1.14866e-06, Final residual = 1.02925e-07, No Iterations 2
GAMG:  Solving for p, Initial residual = 0.000699756, Final residual = 2.30765e-05, No Iterations 2
time step continuity errors : sum local = 2.72571e-07, global = 4.89685e-16, cumulative = 4.2098e-14
smoothSolver:  Solving for nuTilda, Initial residual = 4.32478e-07, Final residual = 1.57335e-08, No Iterations 2
ExecutionTime = 38.42 s  ClockTime = 38 s

Time = 2483

smoothSolver:  Solving for Ux, Initial residual = 1.54918e-06, Final residual = 8.97172e-08, No Iterations 2
smoothSolver:  Solving for Uy, Initial residual = 1.151e-06, Final residual = 1.02307e-07, No Iterations 2
GAMG:  Solving for p, Initial residual = 0.000683868, Final residual = 2.30388e-05, No Iterations 2
time step continuity errors : sum local = 2.70341e-07, global = 6.60934e-16, cumulative = 4.27589e-14
smoothSolver:  Solving for nuTilda, Initial residual = 5.46305e-07, Final residual = 1.4817e-08, No Iterations 2
ExecutionTime = 38.43 s  ClockTime = 38 s

Time = 2484

smoothSolver:  Solving for Ux, Initial residual = 1.46384e-06, Final residual = 8.92397e-08, No Iterations 2
smoothSolver:  Solving for Uy, Initial residual = 1.14866e-06, Final residual = 1.02925e-07, No Iterations 2
GAMG:  Solving for p, Initial residual = 0.000699756, Final residual = 2.30765e-05, No Iterations 2
time step continuity errors : sum local = 2.7257e-07, global = 9.2317e-16, cumulative = 4.36821e-14
smoothSolver:  Solving for nuTilda, Initial residual = 4.32478e-07, Final residual = 1.57335e-08, No Iterations 2
ExecutionTime = 38.45 s  ClockTime = 38 s

Time = 2485

smoothSolver:  Solving for Ux, Initial residual = 1.54918e-06, Final residual = 8.97172e-08, No Iterations 2
smoothSolver:  Solving for Uy, Initial residual = 1.151e-06, Final residual = 1.02307e-07, No Iterations 2
GAMG:  Solving for p, Initial residual = 0.000683868, Final residual = 2.30388e-05, No Iterations 2
time step continuity errors : sum local = 2.70342e-07, global = -1.16931e-15, cumulative = 4.25128e-14
smoothSolver:  Solving for nuTilda, Initial residual = 5.46305e-07, Final residual = 1.4817e-08, No Iterations 2
ExecutionTime = 38.46 s  ClockTime = 38 s

Time = 2486

smoothSolver:  Solving for Ux, Initial residual = 1.46384e-06, Final residual = 8.92397e-08, No Iterations 2
smoothSolver:  Solving for Uy, Initial residual = 1.14866e-06, Final residual = 1.02925e-07, No Iterations 2
GAMG:  Solving for p, Initial residual = 0.000699756, Final residual = 2.30764e-05, No Iterations 2
time step continuity errors : sum local = 2.72568e-07, global = -1.75425e-16, cumulative = 4.23373e-14
smoothSolver:  Solving for nuTilda, Initial residual = 4.32478e-07, Final residual = 1.57335e-08, No Iterations 2
ExecutionTime = 38.48 s  ClockTime = 38 s

Time = 2487

smoothSolver:  Solving for Ux, Initial residual = 1.54918e-06, Final residual = 8.97172e-08, No Iterations 2
smoothSolver:  Solving for Uy, Initial residual = 1.151e-06, Final residual = 1.02307e-07, No Iterations 2
GAMG:  Solving for p, Initial residual = 0.000683868, Final residual = 2.30388e-05, No Iterations 2
time step continuity errors : sum local = 2.70343e-07, global = -1.91551e-16, cumulative = 4.21458e-14
smoothSolver:  Solving for nuTilda, Initial residual = 5.46305e-07, Final residual = 1.4817e-08, No Iterations 2
ExecutionTime = 38.49 s  ClockTime = 39 s

Time = 2488

smoothSolver:  Solving for Ux, Initial residual = 1.46384e-06, Final residual = 8.92397e-08, No Iterations 2
smoothSolver:  Solving for Uy, Initial residual = 1.14865e-06, Final residual = 1.02925e-07, No Iterations 2
GAMG:  Solving for p, Initial residual = 0.000699756, Final residual = 2.30764e-05, No Iterations 2
time step continuity errors : sum local = 2.72567e-07, global = 7.98838e-17, cumulative = 4.22257e-14
smoothSolver:  Solving for nuTilda, Initial residual = 4.32478e-07, Final residual = 1.57335e-08, No Iterations 2
ExecutionTime = 38.51 s  ClockTime = 39 s

Time = 2489

smoothSolver:  Solving for Ux, Initial residual = 1.54918e-06, Final residual = 8.97172e-08, No Iterations 2
smoothSolver:  Solving for Uy, Initial residual = 1.151e-06, Final residual = 1.02307e-07, No Iterations 2
GAMG:  Solving for p, Initial residual = 0.000683868, Final residual = 2.30388e-05, No Iterations 2
time step continuity errors : sum local = 2.70344e-07, global = 6.49634e-16, cumulative = 4.28753e-14
smoothSolver:  Solving for nuTilda, Initial residual = 5.46305e-07, Final residual = 1.4817e-08, No Iterations 2
ExecutionTime = 38.52 s  ClockTime = 39 s

Time = 2490

smoothSolver:  Solving for Ux, Initial residual = 1.46384e-06, Final residual = 8.92397e-08, No Iterations 2
smoothSolver:  Solving for Uy, Initial residual = 1.14865e-06, Final residual = 1.02925e-07, No Iterations 2
GAMG:  Solving for p, Initial residual = 0.000699756, Final residual = 2.30764e-05, No Iterations 2
time step continuity errors : sum local = 2.72566e-07, global = -3.77497e-16, cumulative = 4.24978e-14
smoothSolver:  Solving for nuTilda, Initial residual = 4.32478e-07, Final residual = 1.57335e-08, No Iterations 2
ExecutionTime = 38.53 s  ClockTime = 39 s

Time = 2491

smoothSolver:  Solving for Ux, Initial residual = 1.54918e-06, Final residual = 8.97172e-08, No Iterations 2
smoothSolver:  Solving for Uy, Initial residual = 1.151e-06, Final residual = 1.02307e-07, No Iterations 2
GAMG:  Solving for p, Initial residual = 0.000683868, Final residual = 2.30388e-05, No Iterations 2
time step continuity errors : sum local = 2.70346e-07, global = -3.97979e-16, cumulative = 4.20998e-14
smoothSolver:  Solving for nuTilda, Initial residual = 5.46305e-07, Final residual = 1.4817e-08, No Iterations 2
ExecutionTime = 38.55 s  ClockTime = 39 s

Time = 2492

smoothSolver:  Solving for Ux, Initial residual = 1.46384e-06, Final residual = 8.92397e-08, No Iterations 2
smoothSolver:  Solving for Uy, Initial residual = 1.14865e-06, Final residual = 1.02925e-07, No Iterations 2
GAMG:  Solving for p, Initial residual = 0.000699756, Final residual = 2.30764e-05, No Iterations 2
time step continuity errors : sum local = 2.72564e-07, global = 7.99264e-16, cumulative = 4.28991e-14
smoothSolver:  Solving for nuTilda, Initial residual = 4.32478e-07, Final residual = 1.57335e-08, No Iterations 2
ExecutionTime = 38.56 s  ClockTime = 39 s

Time = 2493

smoothSolver:  Solving for Ux, Initial residual = 1.54918e-06, Final residual = 8.97172e-08, No Iterations 2
smoothSolver:  Solving for Uy, Initial residual = 1.151e-06, Final residual = 1.02307e-07, No Iterations 2
GAMG:  Solving for p, Initial residual = 0.000683868, Final residual = 2.30388e-05, No Iterations 2
time step continuity errors : sum local = 2.70347e-07, global = -2.23664e-16, cumulative = 4.26754e-14
smoothSolver:  Solving for nuTilda, Initial residual = 5.46305e-07, Final residual = 1.4817e-08, No Iterations 2
ExecutionTime = 38.58 s  ClockTime = 39 s

Time = 2494

smoothSolver:  Solving for Ux, Initial residual = 1.46384e-06, Final residual = 8.92397e-08, No Iterations 2
smoothSolver:  Solving for Uy, Initial residual = 1.14865e-06, Final residual = 1.02925e-07, No Iterations 2
GAMG:  Solving for p, Initial residual = 0.000699756, Final residual = 2.30763e-05, No Iterations 2
time step continuity errors : sum local = 2.72563e-07, global = -5.57154e-16, cumulative = 4.21183e-14
smoothSolver:  Solving for nuTilda, Initial residual = 4.32478e-07, Final residual = 1.57335e-08, No Iterations 2
ExecutionTime = 38.59 s  ClockTime = 39 s

Time = 2495

smoothSolver:  Solving for Ux, Initial residual = 1.54918e-06, Final residual = 8.97172e-08, No Iterations 2
smoothSolver:  Solving for Uy, Initial residual = 1.151e-06, Final residual = 1.02307e-07, No Iterations 2
GAMG:  Solving for p, Initial residual = 0.000683868, Final residual = 2.30388e-05, No Iterations 2
time step continuity errors : sum local = 2.70348e-07, global = 2.18438e-16, cumulative = 4.23367e-14
smoothSolver:  Solving for nuTilda, Initial residual = 5.46305e-07, Final residual = 1.4817e-08, No Iterations 2
ExecutionTime = 38.61 s  ClockTime = 39 s

Time = 2496

smoothSolver:  Solving for Ux, Initial residual = 1.46384e-06, Final residual = 8.92397e-08, No Iterations 2
smoothSolver:  Solving for Uy, Initial residual = 1.14865e-06, Final residual = 1.02925e-07, No Iterations 2
GAMG:  Solving for p, Initial residual = 0.000699756, Final residual = 2.30763e-05, No Iterations 2
time step continuity errors : sum local = 2.72561e-07, global = -4.38634e-16, cumulative = 4.18981e-14
smoothSolver:  Solving for nuTilda, Initial residual = 4.32478e-07, Final residual = 1.57335e-08, No Iterations 2
ExecutionTime = 38.62 s  ClockTime = 39 s

Time = 2497

smoothSolver:  Solving for Ux, Initial residual = 1.54918e-06, Final residual = 8.97172e-08, No Iterations 2
smoothSolver:  Solving for Uy, Initial residual = 1.151e-06, Final residual = 1.02307e-07, No Iterations 2
GAMG:  Solving for p, Initial residual = 0.000683868, Final residual = 2.30388e-05, No Iterations 2
time step continuity errors : sum local = 2.70349e-07, global = 5.66302e-16, cumulative = 4.24644e-14
smoothSolver:  Solving for nuTilda, Initial residual = 5.46305e-07, Final residual = 1.4817e-08, No Iterations 2
ExecutionTime = 38.64 s  ClockTime = 39 s

Time = 2498

smoothSolver:  Solving for Ux, Initial residual = 1.46384e-06, Final residual = 8.92397e-08, No Iterations 2
smoothSolver:  Solving for Uy, Initial residual = 1.14865e-06, Final residual = 1.02925e-07, No Iterations 2
GAMG:  Solving for p, Initial residual = 0.000699756, Final residual = 2.30763e-05, No Iterations 2
time step continuity errors : sum local = 2.7256e-07, global = -7.58184e-18, cumulative = 4.24568e-14
smoothSolver:  Solving for nuTilda, Initial residual = 4.32478e-07, Final residual = 1.57335e-08, No Iterations 2
ExecutionTime = 38.65 s  ClockTime = 39 s

Time = 2499

smoothSolver:  Solving for Ux, Initial residual = 1.54918e-06, Final residual = 8.97172e-08, No Iterations 2
smoothSolver:  Solving for Uy, Initial residual = 1.151e-06, Final residual = 1.02307e-07, No Iterations 2
GAMG:  Solving for p, Initial residual = 0.000683868, Final residual = 2.30388e-05, No Iterations 2
time step continuity errors : sum local = 2.7035e-07, global = -2.26708e-16, cumulative = 4.22301e-14
smoothSolver:  Solving for nuTilda, Initial residual = 5.46305e-07, Final residual = 1.4817e-08, No Iterations 2
ExecutionTime = 38.66 s  ClockTime = 39 s

Time = 2500

smoothSolver:  Solving for Ux, Initial residual = 1.46384e-06, Final residual = 8.92397e-08, No Iterations 2
smoothSolver:  Solving for Uy, Initial residual = 1.14865e-06, Final residual = 1.02925e-07, No Iterations 2
GAMG:  Solving for p, Initial residual = 0.000699756, Final residual = 2.30763e-05, No Iterations 2
time step continuity errors : sum local = 2.72559e-07, global = 1.01864e-15, cumulative = 4.32487e-14
smoothSolver:  Solving for nuTilda, Initial residual = 4.32478e-07, Final residual = 1.57335e-08, No Iterations 2
ExecutionTime = 38.71 s  ClockTime = 39 s

End

