/*---------------------------------------------------------------------------*\
| =========                 |                                                 |
| \\      /  F ield         | OpenFOAM: The Open Source CFD Toolbox           |
|  \\    /   O peration     | Version:  5.x                                   |
|   \\  /    A nd           | Web:      www.OpenFOAM.org                      |
|    \\/     M anipulation  |                                                 |
\*---------------------------------------------------------------------------*/
Build  : 5.x-68e8507efb72
Exec   : simpleFoam
Date   : Feb 26 2022
Time   : 16:15:04
Host   : "Desktop-PC"
PID    : 5098
I/O    : uncollated
Case   : /home/emilio/code/flow-separation-prediction/openfoam/run/Airfold2D_full
nProcs : 1
sigFpe : Enabling floating point exception trapping (FOAM_SIGFPE).
fileModificationChecking : Monitoring run-time modified files using timeStampMaster (fileModificationSkew 10)
allowSystemOperations : Allowing user-supplied system call operations

// * * * * * * * * * * * * * * * * * * * * * * * * * * * * * * * * * * * * * //
Create time

Create mesh for time = 0


SIMPLE: convergence criteria
    field p	 tolerance 1e-05
    field U	 tolerance 1e-05
    field nuTilda	 tolerance 1e-05

Reading field p

Reading field U

Reading/calculating face flux field phi

Selecting incompressible transport model Newtonian
Selecting turbulence model type RAS
Selecting RAS turbulence model SpalartAllmaras
Selecting patchDistMethod meshWave
RAS
{
    RASModel        SpalartAllmaras;
    turbulence      on;
    printCoeffs     on;
    sigmaNut        0.66666;
    kappa           0.41;
    Cb1             0.1355;
    Cb2             0.622;
    Cw2             0.3;
    Cw3             2;
    Cv1             7.1;
    Cs              0.3;
}

No MRF models present

No finite volume options present


Starting time loop

Time = 1

smoothSolver:  Solving for Ux, Initial residual = 1, Final residual = 0.0947544, No Iterations 4
smoothSolver:  Solving for Uy, Initial residual = 1, Final residual = 0.0681336, No Iterations 4
GAMG:  Solving for p, Initial residual = 1, Final residual = 0.0706752, No Iterations 7
time step continuity errors : sum local = 0.0175957, global = 3.41065e-15, cumulative = 3.41065e-15
smoothSolver:  Solving for nuTilda, Initial residual = 1, Final residual = 0.0114707, No Iterations 2
ExecutionTime = 0.09 s  ClockTime = 0 s

Time = 2

smoothSolver:  Solving for Ux, Initial residual = 0.319453, Final residual = 0.0171053, No Iterations 2
smoothSolver:  Solving for Uy, Initial residual = 0.645856, Final residual = 0.0288562, No Iterations 2
GAMG:  Solving for p, Initial residual = 0.785598, Final residual = 0.0564687, No Iterations 3
time step continuity errors : sum local = 0.0698074, global = -3.37434e-16, cumulative = 3.07322e-15
smoothSolver:  Solving for nuTilda, Initial residual = 0.0364427, Final residual = 0.00120407, No Iterations 2
ExecutionTime = 0.11 s  ClockTime = 0 s

Time = 3

smoothSolver:  Solving for Ux, Initial residual = 0.0800907, Final residual = 0.00375527, No Iterations 2
smoothSolver:  Solving for Uy, Initial residual = 0.246975, Final residual = 0.0100792, No Iterations 2
GAMG:  Solving for p, Initial residual = 0.659546, Final residual = 0.048774, No Iterations 4
time step continuity errors : sum local = 0.0902661, global = -7.85288e-15, cumulative = -4.77966e-15
smoothSolver:  Solving for nuTilda, Initial residual = 0.00880284, Final residual = 0.000622011, No Iterations 2
ExecutionTime = 0.12 s  ClockTime = 0 s

Time = 4

smoothSolver:  Solving for Ux, Initial residual = 0.0214155, Final residual = 0.000904415, No Iterations 2
smoothSolver:  Solving for Uy, Initial residual = 0.097766, Final residual = 0.00457305, No Iterations 2
GAMG:  Solving for p, Initial residual = 0.703537, Final residual = 0.0533181, No Iterations 4
time step continuity errors : sum local = 0.0700575, global = -8.95781e-16, cumulative = -5.67544e-15
smoothSolver:  Solving for nuTilda, Initial residual = 0.0067349, Final residual = 0.000412747, No Iterations 2
ExecutionTime = 0.14 s  ClockTime = 0 s

Time = 5

smoothSolver:  Solving for Ux, Initial residual = 0.0405458, Final residual = 0.00277901, No Iterations 2
smoothSolver:  Solving for Uy, Initial residual = 0.169375, Final residual = 0.00716005, No Iterations 2
GAMG:  Solving for p, Initial residual = 0.731078, Final residual = 0.0722014, No Iterations 3
time step continuity errors : sum local = 0.0986026, global = 8.69533e-15, cumulative = 3.01989e-15
smoothSolver:  Solving for nuTilda, Initial residual = 0.00570205, Final residual = 0.000321151, No Iterations 2
bounding nuTilda, min: -0.00196665 max: 0.159908 average: 0.136506
ExecutionTime = 0.16 s  ClockTime = 0 s

Time = 6

smoothSolver:  Solving for Ux, Initial residual = 0.0758768, Final residual = 0.00422343, No Iterations 2
smoothSolver:  Solving for Uy, Initial residual = 0.214216, Final residual = 0.00812344, No Iterations 2
GAMG:  Solving for p, Initial residual = 0.769095, Final residual = 0.0661862, No Iterations 3
time step continuity errors : sum local = 0.103342, global = 2.13555e-15, cumulative = 5.15544e-15
smoothSolver:  Solving for nuTilda, Initial residual = 0.00596587, Final residual = 0.000389585, No Iterations 2
ExecutionTime = 0.17 s  ClockTime = 0 s

Time = 7

smoothSolver:  Solving for Ux, Initial residual = 0.118652, Final residual = 0.00502138, No Iterations 2
smoothSolver:  Solving for Uy, Initial residual = 0.259312, Final residual = 0.0110428, No Iterations 2
GAMG:  Solving for p, Initial residual = 0.838983, Final residual = 0.0463713, No Iterations 4
time step continuity errors : sum local = 0.0522457, global = -2.85839e-16, cumulative = 4.8696e-15
smoothSolver:  Solving for nuTilda, Initial residual = 0.00584354, Final residual = 0.000348821, No Iterations 2
ExecutionTime = 0.19 s  ClockTime = 0 s

Time = 8

smoothSolver:  Solving for Ux, Initial residual = 0.0751992, Final residual = 0.00297367, No Iterations 2
smoothSolver:  Solving for Uy, Initial residual = 0.19592, Final residual = 0.00955445, No Iterations 2
GAMG:  Solving for p, Initial residual = 0.796084, Final residual = 0.0342054, No Iterations 5
time step continuity errors : sum local = 0.0363597, global = 1.1047e-15, cumulative = 5.9743e-15
smoothSolver:  Solving for nuTilda, Initial residual = 0.00542286, Final residual = 0.000326294, No Iterations 2
ExecutionTime = 0.21 s  ClockTime = 0 s

Time = 9

smoothSolver:  Solving for Ux, Initial residual = 0.0500201, Final residual = 0.00270033, No Iterations 2
smoothSolver:  Solving for Uy, Initial residual = 0.171482, Final residual = 0.00637294, No Iterations 2
GAMG:  Solving for p, Initial residual = 0.784178, Final residual = 0.0744181, No Iterations 4
time step continuity errors : sum local = 0.0788607, global = -2.25555e-15, cumulative = 3.71876e-15
smoothSolver:  Solving for nuTilda, Initial residual = 0.00545128, Final residual = 0.000342625, No Iterations 2
ExecutionTime = 0.22 s  ClockTime = 0 s

Time = 10

smoothSolver:  Solving for Ux, Initial residual = 0.0373211, Final residual = 0.00183091, No Iterations 2
smoothSolver:  Solving for Uy, Initial residual = 0.154641, Final residual = 0.00586224, No Iterations 2
GAMG:  Solving for p, Initial residual = 0.746389, Final residual = 0.0721991, No Iterations 3
time step continuity errors : sum local = 0.0869931, global = 9.65562e-16, cumulative = 4.68432e-15
smoothSolver:  Solving for nuTilda, Initial residual = 0.00548483, Final residual = 0.000328041, No Iterations 2
ExecutionTime = 0.24 s  ClockTime = 0 s

Time = 11

smoothSolver:  Solving for Ux, Initial residual = 0.0337237, Final residual = 0.00153377, No Iterations 2
smoothSolver:  Solving for Uy, Initial residual = 0.110777, Final residual = 0.00542435, No Iterations 2
GAMG:  Solving for p, Initial residual = 0.593662, Final residual = 0.0318083, No Iterations 4
time step continuity errors : sum local = 0.0473245, global = 2.24427e-15, cumulative = 6.92859e-15
smoothSolver:  Solving for nuTilda, Initial residual = 0.00569265, Final residual = 0.000329844, No Iterations 2
ExecutionTime = 0.26 s  ClockTime = 0 s

Time = 12

smoothSolver:  Solving for Ux, Initial residual = 0.0423537, Final residual = 0.00144239, No Iterations 2
smoothSolver:  Solving for Uy, Initial residual = 0.0960444, Final residual = 0.00392459, No Iterations 2
GAMG:  Solving for p, Initial residual = 0.733286, Final residual = 0.0713345, No Iterations 3
time step continuity errors : sum local = 0.0735532, global = 1.87154e-16, cumulative = 7.11574e-15
smoothSolver:  Solving for nuTilda, Initial residual = 0.00601263, Final residual = 0.000352634, No Iterations 2
ExecutionTime = 0.27 s  ClockTime = 0 s

Time = 13

smoothSolver:  Solving for Ux, Initial residual = 0.0389409, Final residual = 0.001987, No Iterations 2
smoothSolver:  Solving for Uy, Initial residual = 0.11764, Final residual = 0.00439984, No Iterations 2
GAMG:  Solving for p, Initial residual = 0.73837, Final residual = 0.0631508, No Iterations 4
time step continuity errors : sum local = 0.0605979, global = -7.74385e-15, cumulative = -6.28109e-16
smoothSolver:  Solving for nuTilda, Initial residual = 0.00596491, Final residual = 0.000342246, No Iterations 2
ExecutionTime = 0.29 s  ClockTime = 0 s

Time = 14

smoothSolver:  Solving for Ux, Initial residual = 0.0347781, Final residual = 0.00154617, No Iterations 2
smoothSolver:  Solving for Uy, Initial residual = 0.11381, Final residual = 0.00455805, No Iterations 2
GAMG:  Solving for p, Initial residual = 0.809721, Final residual = 0.0459187, No Iterations 4
time step continuity errors : sum local = 0.0402047, global = -6.40678e-18, cumulative = -6.34516e-16
smoothSolver:  Solving for nuTilda, Initial residual = 0.0059486, Final residual = 0.000341394, No Iterations 2
ExecutionTime = 0.31 s  ClockTime = 0 s

Time = 15

smoothSolver:  Solving for Ux, Initial residual = 0.0385428, Final residual = 0.000979196, No Iterations 2
smoothSolver:  Solving for Uy, Initial residual = 0.111229, Final residual = 0.00451463, No Iterations 2
GAMG:  Solving for p, Initial residual = 0.760276, Final residual = 0.0375552, No Iterations 4
time step continuity errors : sum local = 0.0292321, global = -6.15511e-15, cumulative = -6.78963e-15
smoothSolver:  Solving for nuTilda, Initial residual = 0.00599686, Final residual = 0.000352151, No Iterations 2
ExecutionTime = 0.32 s  ClockTime = 0 s

Time = 16

smoothSolver:  Solving for Ux, Initial residual = 0.0323777, Final residual = 0.00118832, No Iterations 2
smoothSolver:  Solving for Uy, Initial residual = 0.100556, Final residual = 0.00386556, No Iterations 2
GAMG:  Solving for p, Initial residual = 0.743354, Final residual = 0.0395841, No Iterations 5
time step continuity errors : sum local = 0.0278763, global = -5.31851e-15, cumulative = -1.21081e-14
smoothSolver:  Solving for nuTilda, Initial residual = 0.00611323, Final residual = 0.000373867, No Iterations 2
ExecutionTime = 0.34 s  ClockTime = 0 s

Time = 17

smoothSolver:  Solving for Ux, Initial residual = 0.0235599, Final residual = 0.00126385, No Iterations 2
smoothSolver:  Solving for Uy, Initial residual = 0.0842745, Final residual = 0.00328294, No Iterations 2
GAMG:  Solving for p, Initial residual = 0.719246, Final residual = 0.0465489, No Iterations 4
time step continuity errors : sum local = 0.0314542, global = 2.72027e-15, cumulative = -9.38787e-15
smoothSolver:  Solving for nuTilda, Initial residual = 0.00610356, Final residual = 0.000388497, No Iterations 2
ExecutionTime = 0.36 s  ClockTime = 0 s

Time = 18

smoothSolver:  Solving for Ux, Initial residual = 0.0284278, Final residual = 0.000861411, No Iterations 2
smoothSolver:  Solving for Uy, Initial residual = 0.0712683, Final residual = 0.00289554, No Iterations 2
GAMG:  Solving for p, Initial residual = 0.709435, Final residual = 0.0519129, No Iterations 3
time step continuity errors : sum local = 0.0339647, global = 5.44881e-15, cumulative = -3.93906e-15
smoothSolver:  Solving for nuTilda, Initial residual = 0.00607628, Final residual = 0.000392746, No Iterations 2
ExecutionTime = 0.38 s  ClockTime = 0 s

Time = 19

smoothSolver:  Solving for Ux, Initial residual = 0.0249337, Final residual = 0.000671086, No Iterations 2
smoothSolver:  Solving for Uy, Initial residual = 0.0608719, Final residual = 0.00244868, No Iterations 2
GAMG:  Solving for p, Initial residual = 0.721561, Final residual = 0.0487184, No Iterations 4
time step continuity errors : sum local = 0.030925, global = 1.15845e-15, cumulative = -2.7806e-15
smoothSolver:  Solving for nuTilda, Initial residual = 0.00603872, Final residual = 0.000397052, No Iterations 2
ExecutionTime = 0.39 s  ClockTime = 0 s

Time = 20

smoothSolver:  Solving for Ux, Initial residual = 0.0164534, Final residual = 0.000839692, No Iterations 2
smoothSolver:  Solving for Uy, Initial residual = 0.0648438, Final residual = 0.00216989, No Iterations 2
GAMG:  Solving for p, Initial residual = 0.690183, Final residual = 0.0659203, No Iterations 4
time step continuity errors : sum local = 0.0390136, global = 1.27956e-15, cumulative = -1.50104e-15
smoothSolver:  Solving for nuTilda, Initial residual = 0.00609839, Final residual = 0.00040488, No Iterations 2
ExecutionTime = 0.41 s  ClockTime = 0 s

Time = 21

smoothSolver:  Solving for Ux, Initial residual = 0.0219693, Final residual = 0.000780937, No Iterations 2
smoothSolver:  Solving for Uy, Initial residual = 0.0708723, Final residual = 0.00234178, No Iterations 2
GAMG:  Solving for p, Initial residual = 0.673021, Final residual = 0.0496603, No Iterations 3
time step continuity errors : sum local = 0.0277761, global = 2.39273e-17, cumulative = -1.47712e-15
smoothSolver:  Solving for nuTilda, Initial residual = 0.00615479, Final residual = 0.000414741, No Iterations 2
ExecutionTime = 0.43 s  ClockTime = 0 s

Time = 22

smoothSolver:  Solving for Ux, Initial residual = 0.0218388, Final residual = 0.000554451, No Iterations 2
smoothSolver:  Solving for Uy, Initial residual = 0.0671565, Final residual = 0.00237701, No Iterations 2
GAMG:  Solving for p, Initial residual = 0.682947, Final residual = 0.0575429, No Iterations 3
time step continuity errors : sum local = 0.0323196, global = 1.16624e-14, cumulative = 1.01853e-14
smoothSolver:  Solving for nuTilda, Initial residual = 0.00621398, Final residual = 0.000425033, No Iterations 2
ExecutionTime = 0.45 s  ClockTime = 0 s

Time = 23

smoothSolver:  Solving for Ux, Initial residual = 0.0178276, Final residual = 0.000550718, No Iterations 2
smoothSolver:  Solving for Uy, Initial residual = 0.0562018, Final residual = 0.00193912, No Iterations 2
GAMG:  Solving for p, Initial residual = 0.656396, Final residual = 0.0599819, No Iterations 4
time step continuity errors : sum local = 0.0334192, global = 1.2323e-15, cumulative = 1.14176e-14
smoothSolver:  Solving for nuTilda, Initial residual = 0.0062673, Final residual = 0.000436546, No Iterations 2
ExecutionTime = 0.46 s  ClockTime = 0 s

Time = 24

smoothSolver:  Solving for Ux, Initial residual = 0.0142047, Final residual = 0.000619038, No Iterations 2
smoothSolver:  Solving for Uy, Initial residual = 0.0543792, Final residual = 0.00172793, No Iterations 2
GAMG:  Solving for p, Initial residual = 0.638829, Final residual = 0.0626638, No Iterations 3
time step continuity errors : sum local = 0.0327115, global = 4.44557e-15, cumulative = 1.58631e-14
smoothSolver:  Solving for nuTilda, Initial residual = 0.00630113, Final residual = 0.000452815, No Iterations 2
ExecutionTime = 0.48 s  ClockTime = 0 s

Time = 25

smoothSolver:  Solving for Ux, Initial residual = 0.0168832, Final residual = 0.000556039, No Iterations 2
smoothSolver:  Solving for Uy, Initial residual = 0.0518151, Final residual = 0.0017753, No Iterations 2
GAMG:  Solving for p, Initial residual = 0.518267, Final residual = 0.0437077, No Iterations 3
time step continuity errors : sum local = 0.027881, global = -2.63441e-15, cumulative = 1.32287e-14
smoothSolver:  Solving for nuTilda, Initial residual = 0.00627868, Final residual = 0.000455425, No Iterations 2
ExecutionTime = 0.5 s  ClockTime = 0 s

Time = 26

smoothSolver:  Solving for Ux, Initial residual = 0.0164237, Final residual = 0.000388756, No Iterations 2
smoothSolver:  Solving for Uy, Initial residual = 0.043276, Final residual = 0.00155594, No Iterations 2
GAMG:  Solving for p, Initial residual = 0.488129, Final residual = 0.0289233, No Iterations 4
time step continuity errors : sum local = 0.0185978, global = -1.35768e-15, cumulative = 1.1871e-14
smoothSolver:  Solving for nuTilda, Initial residual = 0.00626758, Final residual = 0.00045672, No Iterations 2
ExecutionTime = 0.51 s  ClockTime = 0 s

Time = 27

smoothSolver:  Solving for Ux, Initial residual = 0.0123396, Final residual = 0.000490242, No Iterations 2
smoothSolver:  Solving for Uy, Initial residual = 0.0468214, Final residual = 0.00125683, No Iterations 2
GAMG:  Solving for p, Initial residual = 0.57813, Final residual = 0.047567, No Iterations 3
time step continuity errors : sum local = 0.0248793, global = -5.57724e-15, cumulative = 6.29381e-15
smoothSolver:  Solving for nuTilda, Initial residual = 0.00626741, Final residual = 0.000456843, No Iterations 2
ExecutionTime = 0.52 s  ClockTime = 1 s

Time = 28

smoothSolver:  Solving for Ux, Initial residual = 0.011459, Final residual = 0.000485145, No Iterations 2
smoothSolver:  Solving for Uy, Initial residual = 0.0463261, Final residual = 0.00123708, No Iterations 2
GAMG:  Solving for p, Initial residual = 0.52394, Final residual = 0.0516755, No Iterations 3
time step continuity errors : sum local = 0.0277778, global = -2.77813e-15, cumulative = 3.51567e-15
smoothSolver:  Solving for nuTilda, Initial residual = 0.00625481, Final residual = 0.000457473, No Iterations 2
ExecutionTime = 0.55 s  ClockTime = 1 s

Time = 29

smoothSolver:  Solving for Ux, Initial residual = 0.0125738, Final residual = 0.000429115, No Iterations 2
smoothSolver:  Solving for Uy, Initial residual = 0.0444871, Final residual = 0.00135378, No Iterations 2
GAMG:  Solving for p, Initial residual = 0.58105, Final residual = 0.0477025, No Iterations 3
time step continuity errors : sum local = 0.0219492, global = 3.63852e-15, cumulative = 7.15419e-15
smoothSolver:  Solving for nuTilda, Initial residual = 0.00621559, Final residual = 0.000455124, No Iterations 2
ExecutionTime = 0.56 s  ClockTime = 1 s

Time = 30

smoothSolver:  Solving for Ux, Initial residual = 0.0135267, Final residual = 0.000349399, No Iterations 2
smoothSolver:  Solving for Uy, Initial residual = 0.0419188, Final residual = 0.00122754, No Iterations 2
GAMG:  Solving for p, Initial residual = 0.572041, Final residual = 0.0391206, No Iterations 3
time step continuity errors : sum local = 0.0177867, global = -2.23753e-15, cumulative = 4.91665e-15
smoothSolver:  Solving for nuTilda, Initial residual = 0.00616975, Final residual = 0.000452687, No Iterations 2
ExecutionTime = 0.58 s  ClockTime = 1 s

Time = 31

smoothSolver:  Solving for Ux, Initial residual = 0.0130246, Final residual = 0.000374318, No Iterations 2
smoothSolver:  Solving for Uy, Initial residual = 0.0395799, Final residual = 0.000941791, No Iterations 2
GAMG:  Solving for p, Initial residual = 0.5676, Final residual = 0.0510224, No Iterations 3
time step continuity errors : sum local = 0.0226967, global = 7.94102e-15, cumulative = 1.28577e-14
smoothSolver:  Solving for nuTilda, Initial residual = 0.0061269, Final residual = 0.000453311, No Iterations 2
ExecutionTime = 0.6 s  ClockTime = 1 s

Time = 32

smoothSolver:  Solving for Ux, Initial residual = 0.0104566, Final residual = 0.000362513, No Iterations 2
smoothSolver:  Solving for Uy, Initial residual = 0.0379177, Final residual = 0.000918333, No Iterations 2
GAMG:  Solving for p, Initial residual = 0.563497, Final residual = 0.0441837, No Iterations 4
time step continuity errors : sum local = 0.0187552, global = -3.34074e-16, cumulative = 1.25236e-14
smoothSolver:  Solving for nuTilda, Initial residual = 0.00607208, Final residual = 0.000453785, No Iterations 2
ExecutionTime = 0.61 s  ClockTime = 1 s

Time = 33

smoothSolver:  Solving for Ux, Initial residual = 0.0115265, Final residual = 0.00030201, No Iterations 2
smoothSolver:  Solving for Uy, Initial residual = 0.0364483, Final residual = 0.000986737, No Iterations 2
GAMG:  Solving for p, Initial residual = 0.545671, Final residual = 0.0339939, No Iterations 3
time step continuity errors : sum local = 0.0142756, global = -5.05993e-15, cumulative = 7.46366e-15
smoothSolver:  Solving for nuTilda, Initial residual = 0.00599699, Final residual = 0.000451436, No Iterations 2
ExecutionTime = 0.63 s  ClockTime = 1 s

Time = 34

smoothSolver:  Solving for Ux, Initial residual = 0.0122147, Final residual = 0.000299211, No Iterations 2
smoothSolver:  Solving for Uy, Initial residual = 0.0350807, Final residual = 0.000917745, No Iterations 2
GAMG:  Solving for p, Initial residual = 0.519811, Final residual = 0.0337743, No Iterations 3
time step continuity errors : sum local = 0.0146244, global = -2.55748e-15, cumulative = 4.90618e-15
smoothSolver:  Solving for nuTilda, Initial residual = 0.00591503, Final residual = 0.000446935, No Iterations 2
ExecutionTime = 0.65 s  ClockTime = 1 s

Time = 35

smoothSolver:  Solving for Ux, Initial residual = 0.010562, Final residual = 0.0003115, No Iterations 2
smoothSolver:  Solving for Uy, Initial residual = 0.0333998, Final residual = 0.000705565, No Iterations 2
GAMG:  Solving for p, Initial residual = 0.467722, Final residual = 0.036036, No Iterations 4
time step continuity errors : sum local = 0.0167026, global = -1.86003e-15, cumulative = 3.04615e-15
smoothSolver:  Solving for nuTilda, Initial residual = 0.0058087, Final residual = 0.000440936, No Iterations 2
ExecutionTime = 0.66 s  ClockTime = 1 s

Time = 36

smoothSolver:  Solving for Ux, Initial residual = 0.00903878, Final residual = 0.00030069, No Iterations 2
smoothSolver:  Solving for Uy, Initial residual = 0.0337989, Final residual = 0.000721489, No Iterations 2
GAMG:  Solving for p, Initial residual = 0.494459, Final residual = 0.0412458, No Iterations 3
time step continuity errors : sum local = 0.0174414, global = -8.97895e-16, cumulative = 2.14825e-15
smoothSolver:  Solving for nuTilda, Initial residual = 0.00570427, Final residual = 0.000435904, No Iterations 2
ExecutionTime = 0.68 s  ClockTime = 1 s

Time = 37

smoothSolver:  Solving for Ux, Initial residual = 0.0106041, Final residual = 0.000272903, No Iterations 2
smoothSolver:  Solving for Uy, Initial residual = 0.0325695, Final residual = 0.00078068, No Iterations 2
GAMG:  Solving for p, Initial residual = 0.453843, Final residual = 0.0246858, No Iterations 3
time step continuity errors : sum local = 0.0108517, global = -3.11983e-15, cumulative = -9.71573e-16
smoothSolver:  Solving for nuTilda, Initial residual = 0.00561181, Final residual = 0.000431232, No Iterations 2
ExecutionTime = 0.69 s  ClockTime = 1 s

Time = 38

smoothSolver:  Solving for Ux, Initial residual = 0.0106508, Final residual = 0.000248485, No Iterations 2
smoothSolver:  Solving for Uy, Initial residual = 0.030629, Final residual = 0.000664246, No Iterations 2
GAMG:  Solving for p, Initial residual = 0.475868, Final residual = 0.0335652, No Iterations 3
time step continuity errors : sum local = 0.013502, global = 5.28327e-15, cumulative = 4.3117e-15
smoothSolver:  Solving for nuTilda, Initial residual = 0.00552693, Final residual = 0.00042797, No Iterations 2
ExecutionTime = 0.71 s  ClockTime = 1 s

Time = 39

smoothSolver:  Solving for Ux, Initial residual = 0.00930408, Final residual = 0.000236149, No Iterations 2
smoothSolver:  Solving for Uy, Initial residual = 0.0293273, Final residual = 0.000522042, No Iterations 2
GAMG:  Solving for p, Initial residual = 0.480793, Final residual = 0.0304147, No Iterations 4
time step continuity errors : sum local = 0.0118106, global = -5.44415e-15, cumulative = -1.13246e-15
smoothSolver:  Solving for nuTilda, Initial residual = 0.00543077, Final residual = 0.000424994, No Iterations 2
ExecutionTime = 0.72 s  ClockTime = 1 s

Time = 40

smoothSolver:  Solving for Ux, Initial residual = 0.00778892, Final residual = 0.000229493, No Iterations 2
smoothSolver:  Solving for Uy, Initial residual = 0.0294472, Final residual = 0.000543712, No Iterations 2
GAMG:  Solving for p, Initial residual = 0.477909, Final residual = 0.0321373, No Iterations 3
time step continuity errors : sum local = 0.0120512, global = 4.76957e-15, cumulative = 3.63711e-15
smoothSolver:  Solving for nuTilda, Initial residual = 0.00531814, Final residual = 0.000421429, No Iterations 2
ExecutionTime = 0.74 s  ClockTime = 1 s

Time = 41

smoothSolver:  Solving for Ux, Initial residual = 0.00863227, Final residual = 0.000237533, No Iterations 2
smoothSolver:  Solving for Uy, Initial residual = 0.029171, Final residual = 0.000558369, No Iterations 2
GAMG:  Solving for p, Initial residual = 0.471144, Final residual = 0.0255011, No Iterations 3
time step continuity errors : sum local = 0.00946137, global = 3.99707e-16, cumulative = 4.03682e-15
smoothSolver:  Solving for nuTilda, Initial residual = 0.00520439, Final residual = 0.000416641, No Iterations 2
ExecutionTime = 0.76 s  ClockTime = 1 s

Time = 42

smoothSolver:  Solving for Ux, Initial residual = 0.00826025, Final residual = 0.000243829, No Iterations 2
smoothSolver:  Solving for Uy, Initial residual = 0.0277424, Final residual = 0.000486078, No Iterations 2
GAMG:  Solving for p, Initial residual = 0.46607, Final residual = 0.0393978, No Iterations 3
time step continuity errors : sum local = 0.0143019, global = 3.20426e-15, cumulative = 7.24108e-15
smoothSolver:  Solving for nuTilda, Initial residual = 0.00509289, Final residual = 0.000411427, No Iterations 2
ExecutionTime = 0.77 s  ClockTime = 1 s

Time = 43

smoothSolver:  Solving for Ux, Initial residual = 0.00730584, Final residual = 0.000233052, No Iterations 2
smoothSolver:  Solving for Uy, Initial residual = 0.0257829, Final residual = 0.000467597, No Iterations 2
GAMG:  Solving for p, Initial residual = 0.455639, Final residual = 0.0432075, No Iterations 3
time step continuity errors : sum local = 0.0154395, global = -6.2e-15, cumulative = 1.04108e-15
smoothSolver:  Solving for nuTilda, Initial residual = 0.00499564, Final residual = 0.000406487, No Iterations 2
ExecutionTime = 0.79 s  ClockTime = 1 s

Time = 44

smoothSolver:  Solving for Ux, Initial residual = 0.00801162, Final residual = 0.000216524, No Iterations 2
smoothSolver:  Solving for Uy, Initial residual = 0.0242847, Final residual = 0.000497467, No Iterations 2
GAMG:  Solving for p, Initial residual = 0.444903, Final residual = 0.0286698, No Iterations 3
time step continuity errors : sum local = 0.00994607, global = -4.45786e-15, cumulative = -3.41678e-15
smoothSolver:  Solving for nuTilda, Initial residual = 0.0049211, Final residual = 0.000403793, No Iterations 2
ExecutionTime = 0.8 s  ClockTime = 1 s

Time = 45

smoothSolver:  Solving for Ux, Initial residual = 0.00876406, Final residual = 0.000213312, No Iterations 2
smoothSolver:  Solving for Uy, Initial residual = 0.0228706, Final residual = 0.000461865, No Iterations 2
GAMG:  Solving for p, Initial residual = 0.425727, Final residual = 0.0242934, No Iterations 3
time step continuity errors : sum local = 0.0085403, global = 3.51161e-15, cumulative = 9.48278e-17
smoothSolver:  Solving for nuTilda, Initial residual = 0.00484569, Final residual = 0.000401359, No Iterations 2
ExecutionTime = 0.82 s  ClockTime = 1 s

Time = 46

smoothSolver:  Solving for Ux, Initial residual = 0.00841503, Final residual = 0.000211781, No Iterations 2
smoothSolver:  Solving for Uy, Initial residual = 0.0219325, Final residual = 0.000385844, No Iterations 2
GAMG:  Solving for p, Initial residual = 0.420698, Final residual = 0.0377937, No Iterations 3
time step continuity errors : sum local = 0.0130374, global = -6.06299e-16, cumulative = -5.11471e-16
smoothSolver:  Solving for nuTilda, Initial residual = 0.00476571, Final residual = 0.000398683, No Iterations 2
ExecutionTime = 0.83 s  ClockTime = 1 s

Time = 47

smoothSolver:  Solving for Ux, Initial residual = 0.00691185, Final residual = 0.000204758, No Iterations 2
smoothSolver:  Solving for Uy, Initial residual = 0.0226762, Final residual = 0.000364101, No Iterations 2
GAMG:  Solving for p, Initial residual = 0.405115, Final residual = 0.0374157, No Iterations 3
time step continuity errors : sum local = 0.0130515, global = -5.11005e-15, cumulative = -5.62152e-15
smoothSolver:  Solving for nuTilda, Initial residual = 0.00468022, Final residual = 0.00039538, No Iterations 2
ExecutionTime = 0.85 s  ClockTime = 1 s

Time = 48

smoothSolver:  Solving for Ux, Initial residual = 0.00646445, Final residual = 0.000195374, No Iterations 2
smoothSolver:  Solving for Uy, Initial residual = 0.0228074, Final residual = 0.000374204, No Iterations 2
GAMG:  Solving for p, Initial residual = 0.388415, Final residual = 0.0255088, No Iterations 3
time step continuity errors : sum local = 0.00902006, global = -2.99662e-15, cumulative = -8.61814e-15
smoothSolver:  Solving for nuTilda, Initial residual = 0.00459866, Final residual = 0.000392175, No Iterations 2
ExecutionTime = 0.87 s  ClockTime = 1 s

Time = 49

smoothSolver:  Solving for Ux, Initial residual = 0.00689647, Final residual = 0.000194502, No Iterations 2
smoothSolver:  Solving for Uy, Initial residual = 0.0213744, Final residual = 0.000345171, No Iterations 2
GAMG:  Solving for p, Initial residual = 0.374716, Final residual = 0.0241912, No Iterations 3
time step continuity errors : sum local = 0.00858597, global = -4.45848e-15, cumulative = -1.30766e-14
smoothSolver:  Solving for nuTilda, Initial residual = 0.0045227, Final residual = 0.000389493, No Iterations 2
ExecutionTime = 0.88 s  ClockTime = 1 s

Time = 50

smoothSolver:  Solving for Ux, Initial residual = 0.00668016, Final residual = 0.000191597, No Iterations 2
smoothSolver:  Solving for Uy, Initial residual = 0.0192101, Final residual = 0.000330832, No Iterations 2
GAMG:  Solving for p, Initial residual = 0.365971, Final residual = 0.033447, No Iterations 3
time step continuity errors : sum local = 0.0117885, global = -9.40095e-16, cumulative = -1.40167e-14
smoothSolver:  Solving for nuTilda, Initial residual = 0.00444878, Final residual = 0.00038842, No Iterations 2
ExecutionTime = 0.93 s  ClockTime = 1 s

Time = 51

smoothSolver:  Solving for Ux, Initial residual = 0.00605377, Final residual = 0.000178185, No Iterations 2
smoothSolver:  Solving for Uy, Initial residual = 0.0174636, Final residual = 0.000343447, No Iterations 2
GAMG:  Solving for p, Initial residual = 0.353644, Final residual = 0.0314709, No Iterations 3
time step continuity errors : sum local = 0.0111007, global = -6.40845e-16, cumulative = -1.46576e-14
smoothSolver:  Solving for nuTilda, Initial residual = 0.00437556, Final residual = 0.000388152, No Iterations 2
ExecutionTime = 0.95 s  ClockTime = 1 s

Time = 52

smoothSolver:  Solving for Ux, Initial residual = 0.00661867, Final residual = 0.000177808, No Iterations 2
smoothSolver:  Solving for Uy, Initial residual = 0.0167223, Final residual = 0.000333307, No Iterations 2
GAMG:  Solving for p, Initial residual = 0.341828, Final residual = 0.0256164, No Iterations 3
time step continuity errors : sum local = 0.00894898, global = 2.06921e-15, cumulative = -1.25884e-14
smoothSolver:  Solving for nuTilda, Initial residual = 0.00430091, Final residual = 0.000388754, No Iterations 2
ExecutionTime = 0.97 s  ClockTime = 1 s

Time = 53

smoothSolver:  Solving for Ux, Initial residual = 0.00711351, Final residual = 0.000181112, No Iterations 2
smoothSolver:  Solving for Uy, Initial residual = 0.0165783, Final residual = 0.000316735, No Iterations 2
GAMG:  Solving for p, Initial residual = 0.353952, Final residual = 0.0241048, No Iterations 3
time step continuity errors : sum local = 0.00792711, global = 1.31778e-15, cumulative = -1.12706e-14
smoothSolver:  Solving for nuTilda, Initial residual = 0.00421803, Final residual = 0.000388472, No Iterations 2
ExecutionTime = 0.98 s  ClockTime = 1 s

Time = 54

smoothSolver:  Solving for Ux, Initial residual = 0.00647743, Final residual = 0.000172166, No Iterations 2
smoothSolver:  Solving for Uy, Initial residual = 0.0165214, Final residual = 0.000288434, No Iterations 2
GAMG:  Solving for p, Initial residual = 0.343744, Final residual = 0.030989, No Iterations 3
time step continuity errors : sum local = 0.0101127, global = 4.15179e-16, cumulative = -1.08554e-14
smoothSolver:  Solving for nuTilda, Initial residual = 0.00413088, Final residual = 0.000387173, No Iterations 2
ExecutionTime = 1 s  ClockTime = 1 s

Time = 55

smoothSolver:  Solving for Ux, Initial residual = 0.00530184, Final residual = 0.000159401, No Iterations 2
smoothSolver:  Solving for Uy, Initial residual = 0.0162377, Final residual = 0.000271003, No Iterations 2
GAMG:  Solving for p, Initial residual = 0.34307, Final residual = 0.029652, No Iterations 3
time step continuity errors : sum local = 0.00938675, global = 1.84073e-16, cumulative = -1.06713e-14
smoothSolver:  Solving for nuTilda, Initial residual = 0.00404642, Final residual = 0.00038521, No Iterations 2
ExecutionTime = 1.02 s  ClockTime = 1 s

Time = 56

smoothSolver:  Solving for Ux, Initial residual = 0.005278, Final residual = 0.000156194, No Iterations 2
smoothSolver:  Solving for Uy, Initial residual = 0.0153664, Final residual = 0.000270343, No Iterations 2
GAMG:  Solving for p, Initial residual = 0.341447, Final residual = 0.0223589, No Iterations 3
time step continuity errors : sum local = 0.00695129, global = -2.32129e-15, cumulative = -1.29926e-14
smoothSolver:  Solving for nuTilda, Initial residual = 0.00395182, Final residual = 0.000382418, No Iterations 2
ExecutionTime = 1.04 s  ClockTime = 1 s

Time = 57

smoothSolver:  Solving for Ux, Initial residual = 0.00533972, Final residual = 0.000147481, No Iterations 2
smoothSolver:  Solving for Uy, Initial residual = 0.013993, Final residual = 0.000280507, No Iterations 2
GAMG:  Solving for p, Initial residual = 0.339626, Final residual = 0.0243186, No Iterations 3
time step continuity errors : sum local = 0.00743828, global = 2.17691e-15, cumulative = -1.08157e-14
smoothSolver:  Solving for nuTilda, Initial residual = 0.0038516, Final residual = 0.000378868, No Iterations 2
ExecutionTime = 1.05 s  ClockTime = 1 s

Time = 58

smoothSolver:  Solving for Ux, Initial residual = 0.005092, Final residual = 0.000143325, No Iterations 2
smoothSolver:  Solving for Uy, Initial residual = 0.0132463, Final residual = 0.000273946, No Iterations 2
GAMG:  Solving for p, Initial residual = 0.335361, Final residual = 0.0286675, No Iterations 3
time step continuity errors : sum local = 0.00861403, global = 2.89124e-15, cumulative = -7.92446e-15
smoothSolver:  Solving for nuTilda, Initial residual = 0.00373921, Final residual = 4.87364e-05, No Iterations 4
ExecutionTime = 1.06 s  ClockTime = 1 s

Time = 59

smoothSolver:  Solving for Ux, Initial residual = 0.00476851, Final residual = 0.000149826, No Iterations 2
smoothSolver:  Solving for Uy, Initial residual = 0.0130436, Final residual = 0.000260808, No Iterations 2
GAMG:  Solving for p, Initial residual = 0.328673, Final residual = 0.0234519, No Iterations 3
time step continuity errors : sum local = 0.00683555, global = 9.12225e-15, cumulative = 1.19779e-15
smoothSolver:  Solving for nuTilda, Initial residual = 0.00359308, Final residual = 4.70516e-05, No Iterations 4
ExecutionTime = 1.08 s  ClockTime = 1 s

Time = 60

smoothSolver:  Solving for Ux, Initial residual = 0.00476405, Final residual = 0.000152748, No Iterations 2
smoothSolver:  Solving for Uy, Initial residual = 0.0126524, Final residual = 0.000239253, No Iterations 2
GAMG:  Solving for p, Initial residual = 0.313644, Final residual = 0.0210468, No Iterations 3
time step continuity errors : sum local = 0.00626883, global = 4.78905e-15, cumulative = 5.98684e-15
smoothSolver:  Solving for nuTilda, Initial residual = 0.00345633, Final residual = 4.54545e-05, No Iterations 4
ExecutionTime = 1.09 s  ClockTime = 1 s

Time = 61

smoothSolver:  Solving for Ux, Initial residual = 0.00470584, Final residual = 0.000139837, No Iterations 2
smoothSolver:  Solving for Uy, Initial residual = 0.012011, Final residual = 0.000217454, No Iterations 2
GAMG:  Solving for p, Initial residual = 0.308977, Final residual = 0.0220101, No Iterations 3
time step continuity errors : sum local = 0.00648607, global = 6.73487e-15, cumulative = 1.27217e-14
smoothSolver:  Solving for nuTilda, Initial residual = 0.00332336, Final residual = 4.39217e-05, No Iterations 4
ExecutionTime = 1.12 s  ClockTime = 1 s

Time = 62

smoothSolver:  Solving for Ux, Initial residual = 0.00438206, Final residual = 0.000123573, No Iterations 2
smoothSolver:  Solving for Uy, Initial residual = 0.0114126, Final residual = 0.000198214, No Iterations 2
GAMG:  Solving for p, Initial residual = 0.297755, Final residual = 0.0239996, No Iterations 3
time step continuity errors : sum local = 0.00717459, global = 2.90947e-15, cumulative = 1.56312e-14
smoothSolver:  Solving for nuTilda, Initial residual = 0.00318556, Final residual = 4.25044e-05, No Iterations 4
ExecutionTime = 1.13 s  ClockTime = 1 s

Time = 63

smoothSolver:  Solving for Ux, Initial residual = 0.00398331, Final residual = 0.000111154, No Iterations 2
smoothSolver:  Solving for Uy, Initial residual = 0.0108592, Final residual = 0.000204672, No Iterations 2
GAMG:  Solving for p, Initial residual = 0.286538, Final residual = 0.0211796, No Iterations 3
time step continuity errors : sum local = 0.00632334, global = -3.60508e-16, cumulative = 1.52707e-14
smoothSolver:  Solving for nuTilda, Initial residual = 0.00304912, Final residual = 4.11589e-05, No Iterations 4
ExecutionTime = 1.15 s  ClockTime = 1 s

Time = 64

smoothSolver:  Solving for Ux, Initial residual = 0.00388881, Final residual = 0.000109878, No Iterations 2
smoothSolver:  Solving for Uy, Initial residual = 0.0105207, Final residual = 0.00023219, No Iterations 2
GAMG:  Solving for p, Initial residual = 0.285551, Final residual = 0.0198074, No Iterations 3
time step continuity errors : sum local = 0.00579546, global = -6.51785e-16, cumulative = 1.46189e-14
smoothSolver:  Solving for nuTilda, Initial residual = 0.00291847, Final residual = 3.99139e-05, No Iterations 4
ExecutionTime = 1.17 s  ClockTime = 1 s

Time = 65

smoothSolver:  Solving for Ux, Initial residual = 0.00386612, Final residual = 0.000112495, No Iterations 2
smoothSolver:  Solving for Uy, Initial residual = 0.0102667, Final residual = 0.000234353, No Iterations 2
GAMG:  Solving for p, Initial residual = 0.278078, Final residual = 0.0201595, No Iterations 3
time step continuity errors : sum local = 0.00587505, global = 5.65381e-15, cumulative = 2.02727e-14
smoothSolver:  Solving for nuTilda, Initial residual = 0.00278829, Final residual = 3.86934e-05, No Iterations 4
ExecutionTime = 1.18 s  ClockTime = 1 s

Time = 66

smoothSolver:  Solving for Ux, Initial residual = 0.00373684, Final residual = 0.000115051, No Iterations 2
smoothSolver:  Solving for Uy, Initial residual = 0.00989206, Final residual = 0.000221247, No Iterations 2
GAMG:  Solving for p, Initial residual = 0.273475, Final residual = 0.0209242, No Iterations 3
time step continuity errors : sum local = 0.00596741, global = -1.52106e-15, cumulative = 1.87516e-14
smoothSolver:  Solving for nuTilda, Initial residual = 0.0026573, Final residual = 3.74984e-05, No Iterations 4
ExecutionTime = 1.2 s  ClockTime = 1 s

Time = 67

smoothSolver:  Solving for Ux, Initial residual = 0.00341515, Final residual = 0.000111588, No Iterations 2
smoothSolver:  Solving for Uy, Initial residual = 0.00956657, Final residual = 0.000207063, No Iterations 2
GAMG:  Solving for p, Initial residual = 0.268143, Final residual = 0.0197629, No Iterations 3
time step continuity errors : sum local = 0.00555839, global = -3.50492e-15, cumulative = 1.52467e-14
smoothSolver:  Solving for nuTilda, Initial residual = 0.00253039, Final residual = 3.61994e-05, No Iterations 4
ExecutionTime = 1.22 s  ClockTime = 1 s

Time = 68

smoothSolver:  Solving for Ux, Initial residual = 0.00319139, Final residual = 9.93222e-05, No Iterations 2
smoothSolver:  Solving for Uy, Initial residual = 0.00919778, Final residual = 0.000195992, No Iterations 2
GAMG:  Solving for p, Initial residual = 0.264272, Final residual = 0.0195942, No Iterations 3
time step continuity errors : sum local = 0.00545697, global = -2.43406e-15, cumulative = 1.28127e-14
smoothSolver:  Solving for nuTilda, Initial residual = 0.00241001, Final residual = 3.49524e-05, No Iterations 4
ExecutionTime = 1.23 s  ClockTime = 1 s

Time = 69

smoothSolver:  Solving for Ux, Initial residual = 0.0031334, Final residual = 8.65651e-05, No Iterations 2
smoothSolver:  Solving for Uy, Initial residual = 0.00872295, Final residual = 0.000184235, No Iterations 2
GAMG:  Solving for p, Initial residual = 0.259503, Final residual = 0.0197016, No Iterations 3
time step continuity errors : sum local = 0.00544269, global = -7.19089e-15, cumulative = 5.62177e-15
smoothSolver:  Solving for nuTilda, Initial residual = 0.00230278, Final residual = 3.37896e-05, No Iterations 4
ExecutionTime = 1.25 s  ClockTime = 1 s

Time = 70

smoothSolver:  Solving for Ux, Initial residual = 0.00302757, Final residual = 8.33807e-05, No Iterations 2
smoothSolver:  Solving for Uy, Initial residual = 0.00825774, Final residual = 0.000175221, No Iterations 2
GAMG:  Solving for p, Initial residual = 0.252516, Final residual = 0.0188768, No Iterations 3
time step continuity errors : sum local = 0.00516621, global = -1.53931e-15, cumulative = 4.08246e-15
smoothSolver:  Solving for nuTilda, Initial residual = 0.00219708, Final residual = 3.27022e-05, No Iterations 4
ExecutionTime = 1.27 s  ClockTime = 1 s

Time = 71

smoothSolver:  Solving for Ux, Initial residual = 0.00288215, Final residual = 8.50295e-05, No Iterations 2
smoothSolver:  Solving for Uy, Initial residual = 0.00803315, Final residual = 0.000178441, No Iterations 2
GAMG:  Solving for p, Initial residual = 0.245975, Final residual = 0.0177421, No Iterations 3
time step continuity errors : sum local = 0.00480584, global = 5.25505e-16, cumulative = 4.60796e-15
smoothSolver:  Solving for nuTilda, Initial residual = 0.0020954, Final residual = 3.17089e-05, No Iterations 4
ExecutionTime = 1.28 s  ClockTime = 1 s

Time = 72

smoothSolver:  Solving for Ux, Initial residual = 0.00278082, Final residual = 8.94116e-05, No Iterations 2
smoothSolver:  Solving for Uy, Initial residual = 0.0078861, Final residual = 0.000180109, No Iterations 2
GAMG:  Solving for p, Initial residual = 0.242109, Final residual = 0.0188603, No Iterations 3
time step continuity errors : sum local = 0.00505398, global = 4.98073e-15, cumulative = 9.58869e-15
smoothSolver:  Solving for nuTilda, Initial residual = 0.00199578, Final residual = 3.0774e-05, No Iterations 4
ExecutionTime = 1.3 s  ClockTime = 1 s

Time = 73

smoothSolver:  Solving for Ux, Initial residual = 0.00269285, Final residual = 9.24664e-05, No Iterations 2
smoothSolver:  Solving for Uy, Initial residual = 0.00747661, Final residual = 0.000171862, No Iterations 2
GAMG:  Solving for p, Initial residual = 0.236723, Final residual = 0.0183601, No Iterations 3
time step continuity errors : sum local = 0.00487452, global = 2.28024e-15, cumulative = 1.18689e-14
smoothSolver:  Solving for nuTilda, Initial residual = 0.00190422, Final residual = 2.98357e-05, No Iterations 4
ExecutionTime = 1.31 s  ClockTime = 1 s

Time = 74

smoothSolver:  Solving for Ux, Initial residual = 0.00258695, Final residual = 8.89735e-05, No Iterations 2
smoothSolver:  Solving for Uy, Initial residual = 0.00709808, Final residual = 0.000164202, No Iterations 2
GAMG:  Solving for p, Initial residual = 0.229396, Final residual = 0.0162027, No Iterations 3
time step continuity errors : sum local = 0.00426427, global = -1.70351e-15, cumulative = 1.01654e-14
smoothSolver:  Solving for nuTilda, Initial residual = 0.00181963, Final residual = 2.89554e-05, No Iterations 4
ExecutionTime = 1.33 s  ClockTime = 1 s

Time = 75

smoothSolver:  Solving for Ux, Initial residual = 0.00244357, Final residual = 7.8806e-05, No Iterations 2
smoothSolver:  Solving for Uy, Initial residual = 0.00695507, Final residual = 0.000159019, No Iterations 2
GAMG:  Solving for p, Initial residual = 0.222324, Final residual = 0.0158683, No Iterations 3
time step continuity errors : sum local = 0.00413645, global = 1.24775e-14, cumulative = 2.26429e-14
smoothSolver:  Solving for nuTilda, Initial residual = 0.00174822, Final residual = 2.81838e-05, No Iterations 4
ExecutionTime = 1.35 s  ClockTime = 1 s

Time = 76

smoothSolver:  Solving for Ux, Initial residual = 0.00228143, Final residual = 7.13615e-05, No Iterations 2
smoothSolver:  Solving for Uy, Initial residual = 0.00681145, Final residual = 0.000150694, No Iterations 2
GAMG:  Solving for p, Initial residual = 0.217599, Final residual = 0.018401, No Iterations 3
time step continuity errors : sum local = 0.00475247, global = 8.99388e-15, cumulative = 3.16368e-14
smoothSolver:  Solving for nuTilda, Initial residual = 0.00168227, Final residual = 2.74863e-05, No Iterations 4
ExecutionTime = 1.36 s  ClockTime = 1 s

Time = 77

smoothSolver:  Solving for Ux, Initial residual = 0.00218043, Final residual = 7.19969e-05, No Iterations 2
smoothSolver:  Solving for Uy, Initial residual = 0.00640176, Final residual = 0.000136494, No Iterations 2
GAMG:  Solving for p, Initial residual = 0.211638, Final residual = 0.0177851, No Iterations 3
time step continuity errors : sum local = 0.00455912, global = -3.56454e-15, cumulative = 2.80723e-14
smoothSolver:  Solving for nuTilda, Initial residual = 0.00162241, Final residual = 2.69145e-05, No Iterations 4
ExecutionTime = 1.38 s  ClockTime = 1 s

Time = 78

smoothSolver:  Solving for Ux, Initial residual = 0.00216195, Final residual = 7.4283e-05, No Iterations 2
smoothSolver:  Solving for Uy, Initial residual = 0.00607219, Final residual = 0.000127488, No Iterations 2
GAMG:  Solving for p, Initial residual = 0.203808, Final residual = 0.0145863, No Iterations 3
time step continuity errors : sum local = 0.00370445, global = 4.58739e-16, cumulative = 2.8531e-14
smoothSolver:  Solving for nuTilda, Initial residual = 0.00156577, Final residual = 2.64263e-05, No Iterations 4
ExecutionTime = 1.39 s  ClockTime = 1 s

Time = 79

smoothSolver:  Solving for Ux, Initial residual = 0.00212697, Final residual = 7.73734e-05, No Iterations 2
smoothSolver:  Solving for Uy, Initial residual = 0.00585748, Final residual = 0.000129594, No Iterations 2
GAMG:  Solving for p, Initial residual = 0.197221, Final residual = 0.0141685, No Iterations 3
time step continuity errors : sum local = 0.00355742, global = -8.43683e-16, cumulative = 2.76873e-14
smoothSolver:  Solving for nuTilda, Initial residual = 0.0015162, Final residual = 2.59925e-05, No Iterations 4
ExecutionTime = 1.41 s  ClockTime = 1 s

Time = 80

smoothSolver:  Solving for Ux, Initial residual = 0.00199531, Final residual = 7.7866e-05, No Iterations 2
smoothSolver:  Solving for Uy, Initial residual = 0.00554676, Final residual = 0.000132083, No Iterations 2
GAMG:  Solving for p, Initial residual = 0.192744, Final residual = 0.016846, No Iterations 3
time step continuity errors : sum local = 0.00418472, global = -2.18404e-15, cumulative = 2.55033e-14
smoothSolver:  Solving for nuTilda, Initial residual = 0.00147164, Final residual = 2.56327e-05, No Iterations 4
ExecutionTime = 1.43 s  ClockTime = 1 s

Time = 81

smoothSolver:  Solving for Ux, Initial residual = 0.0018368, Final residual = 7.34831e-05, No Iterations 2
smoothSolver:  Solving for Uy, Initial residual = 0.00519918, Final residual = 0.000131745, No Iterations 2
GAMG:  Solving for p, Initial residual = 0.186341, Final residual = 0.0161016, No Iterations 3
time step continuity errors : sum local = 0.00396666, global = -1.05397e-14, cumulative = 1.49636e-14
smoothSolver:  Solving for nuTilda, Initial residual = 0.00143462, Final residual = 2.53156e-05, No Iterations 4
ExecutionTime = 1.44 s  ClockTime = 1 s

Time = 82

smoothSolver:  Solving for Ux, Initial residual = 0.00180519, Final residual = 6.68727e-05, No Iterations 2
smoothSolver:  Solving for Uy, Initial residual = 0.00510532, Final residual = 0.000125236, No Iterations 2
GAMG:  Solving for p, Initial residual = 0.178644, Final residual = 0.012996, No Iterations 3
time step continuity errors : sum local = 0.00317806, global = 4.03786e-15, cumulative = 1.90015e-14
smoothSolver:  Solving for nuTilda, Initial residual = 0.00140208, Final residual = 2.5058e-05, No Iterations 4
ExecutionTime = 1.46 s  ClockTime = 1 s

Time = 83

smoothSolver:  Solving for Ux, Initial residual = 0.00183448, Final residual = 6.65579e-05, No Iterations 2
smoothSolver:  Solving for Uy, Initial residual = 0.00499795, Final residual = 0.000115337, No Iterations 2
GAMG:  Solving for p, Initial residual = 0.171799, Final residual = 0.0129516, No Iterations 3
time step continuity errors : sum local = 0.00313712, global = -1.75033e-15, cumulative = 1.72512e-14
smoothSolver:  Solving for nuTilda, Initial residual = 0.00137533, Final residual = 2.4837e-05, No Iterations 4
ExecutionTime = 1.47 s  ClockTime = 1 s

Time = 84

smoothSolver:  Solving for Ux, Initial residual = 0.00173735, Final residual = 6.94097e-05, No Iterations 2
smoothSolver:  Solving for Uy, Initial residual = 0.00480061, Final residual = 0.000104432, No Iterations 2
GAMG:  Solving for p, Initial residual = 0.166677, Final residual = 0.0153175, No Iterations 3
time step continuity errors : sum local = 0.00367164, global = -3.68578e-15, cumulative = 1.35654e-14
smoothSolver:  Solving for nuTilda, Initial residual = 0.00135, Final residual = 2.46768e-05, No Iterations 4
ExecutionTime = 1.49 s  ClockTime = 1 s

Time = 85

smoothSolver:  Solving for Ux, Initial residual = 0.00158961, Final residual = 7.01083e-05, No Iterations 2
smoothSolver:  Solving for Uy, Initial residual = 0.0044747, Final residual = 9.38833e-05, No Iterations 2
GAMG:  Solving for p, Initial residual = 0.160655, Final residual = 0.0144912, No Iterations 3
time step continuity errors : sum local = 0.00344364, global = 7.95911e-16, cumulative = 1.43613e-14
smoothSolver:  Solving for nuTilda, Initial residual = 0.00132931, Final residual = 2.45847e-05, No Iterations 4
ExecutionTime = 1.51 s  ClockTime = 1 s

Time = 86

smoothSolver:  Solving for Ux, Initial residual = 0.00158759, Final residual = 7.0998e-05, No Iterations 2
smoothSolver:  Solving for Uy, Initial residual = 0.00416855, Final residual = 8.96463e-05, No Iterations 2
GAMG:  Solving for p, Initial residual = 0.152881, Final residual = 0.0115517, No Iterations 3
time step continuity errors : sum local = 0.00272284, global = 7.28214e-15, cumulative = 2.16434e-14
smoothSolver:  Solving for nuTilda, Initial residual = 0.00131176, Final residual = 2.45603e-05, No Iterations 4
ExecutionTime = 1.53 s  ClockTime = 2 s

Time = 87

smoothSolver:  Solving for Ux, Initial residual = 0.00156875, Final residual = 7.06144e-05, No Iterations 2
smoothSolver:  Solving for Uy, Initial residual = 0.00396231, Final residual = 8.93018e-05, No Iterations 2
GAMG:  Solving for p, Initial residual = 0.146084, Final residual = 0.0114426, No Iterations 3
time step continuity errors : sum local = 0.00266879, global = -3.06142e-15, cumulative = 1.8582e-14
smoothSolver:  Solving for nuTilda, Initial residual = 0.00130057, Final residual = 2.46142e-05, No Iterations 4
ExecutionTime = 1.54 s  ClockTime = 2 s

Time = 88

smoothSolver:  Solving for Ux, Initial residual = 0.00145784, Final residual = 6.63117e-05, No Iterations 2
smoothSolver:  Solving for Uy, Initial residual = 0.0038796, Final residual = 9.06541e-05, No Iterations 2
GAMG:  Solving for p, Initial residual = 0.141465, Final residual = 0.0131713, No Iterations 3
time step continuity errors : sum local = 0.00304152, global = -6.64173e-15, cumulative = 1.19403e-14
smoothSolver:  Solving for nuTilda, Initial residual = 0.00129275, Final residual = 2.46995e-05, No Iterations 4
ExecutionTime = 1.56 s  ClockTime = 2 s

Time = 89

smoothSolver:  Solving for Ux, Initial residual = 0.00133431, Final residual = 6.03702e-05, No Iterations 2
smoothSolver:  Solving for Uy, Initial residual = 0.00368336, Final residual = 8.83506e-05, No Iterations 2
GAMG:  Solving for p, Initial residual = 0.135476, Final residual = 0.0123488, No Iterations 3
time step continuity errors : sum local = 0.00283, global = -1.34942e-15, cumulative = 1.05908e-14
smoothSolver:  Solving for nuTilda, Initial residual = 0.00128989, Final residual = 2.47945e-05, No Iterations 4
ExecutionTime = 1.58 s  ClockTime = 2 s

Time = 90

smoothSolver:  Solving for Ux, Initial residual = 0.00133848, Final residual = 5.92999e-05, No Iterations 2
smoothSolver:  Solving for Uy, Initial residual = 0.0034623, Final residual = 8.10274e-05, No Iterations 2
GAMG:  Solving for p, Initial residual = 0.127927, Final residual = 0.0101337, No Iterations 3
time step continuity errors : sum local = 0.00230572, global = 4.41186e-15, cumulative = 1.50027e-14
smoothSolver:  Solving for nuTilda, Initial residual = 0.00128881, Final residual = 2.48909e-05, No Iterations 4
ExecutionTime = 1.6 s  ClockTime = 2 s

Time = 91

smoothSolver:  Solving for Ux, Initial residual = 0.00130921, Final residual = 6.06792e-05, No Iterations 2
smoothSolver:  Solving for Uy, Initial residual = 0.00327889, Final residual = 7.1872e-05, No Iterations 2
GAMG:  Solving for p, Initial residual = 0.121592, Final residual = 0.0100264, No Iterations 3
time step continuity errors : sum local = 0.00226127, global = -2.24543e-15, cumulative = 1.27573e-14
smoothSolver:  Solving for nuTilda, Initial residual = 0.00129373, Final residual = 2.5001e-05, No Iterations 4
ExecutionTime = 1.61 s  ClockTime = 2 s

Time = 92

smoothSolver:  Solving for Ux, Initial residual = 0.00117272, Final residual = 6.05765e-05, No Iterations 2
smoothSolver:  Solving for Uy, Initial residual = 0.00307077, Final residual = 6.45496e-05, No Iterations 2
GAMG:  Solving for p, Initial residual = 0.117198, Final residual = 0.0112738, No Iterations 3
time step continuity errors : sum local = 0.00251901, global = 5.00379e-15, cumulative = 1.77611e-14
smoothSolver:  Solving for nuTilda, Initial residual = 0.00130059, Final residual = 2.51207e-05, No Iterations 4
ExecutionTime = 1.63 s  ClockTime = 2 s

Time = 93

smoothSolver:  Solving for Ux, Initial residual = 0.00109213, Final residual = 5.94137e-05, No Iterations 2
smoothSolver:  Solving for Uy, Initial residual = 0.00274328, Final residual = 6.0649e-05, No Iterations 2
GAMG:  Solving for p, Initial residual = 0.111584, Final residual = 0.0104008, No Iterations 3
time step continuity errors : sum local = 0.00230774, global = -7.85176e-15, cumulative = 9.9093e-15
smoothSolver:  Solving for nuTilda, Initial residual = 0.00131169, Final residual = 2.52303e-05, No Iterations 4
ExecutionTime = 1.65 s  ClockTime = 2 s

Time = 94

smoothSolver:  Solving for Ux, Initial residual = 0.00115552, Final residual = 6.02285e-05, No Iterations 2
smoothSolver:  Solving for Uy, Initial residual = 0.00264245, Final residual = 5.8267e-05, No Iterations 2
GAMG:  Solving for p, Initial residual = 0.105059, Final residual = 0.00862681, No Iterations 3
time step continuity errors : sum local = 0.0019031, global = 5.1112e-15, cumulative = 1.50205e-14
smoothSolver:  Solving for nuTilda, Initial residual = 0.00132346, Final residual = 2.53131e-05, No Iterations 4
ExecutionTime = 1.66 s  ClockTime = 2 s

Time = 95

smoothSolver:  Solving for Ux, Initial residual = 0.0011573, Final residual = 5.84166e-05, No Iterations 2
smoothSolver:  Solving for Uy, Initial residual = 0.00271809, Final residual = 5.59491e-05, No Iterations 2
GAMG:  Solving for p, Initial residual = 0.0988876, Final residual = 0.00851319, No Iterations 3
time step continuity errors : sum local = 0.00186354, global = -7.35372e-15, cumulative = 7.66678e-15
smoothSolver:  Solving for nuTilda, Initial residual = 0.00133755, Final residual = 2.53154e-05, No Iterations 4
ExecutionTime = 1.68 s  ClockTime = 2 s

Time = 96

smoothSolver:  Solving for Ux, Initial residual = 0.00106985, Final residual = 5.30964e-05, No Iterations 2
smoothSolver:  Solving for Uy, Initial residual = 0.00266357, Final residual = 5.44314e-05, No Iterations 2
GAMG:  Solving for p, Initial residual = 0.0948353, Final residual = 0.00928658, No Iterations 3
time step continuity errors : sum local = 0.00201516, global = 2.88389e-15, cumulative = 1.05507e-14
smoothSolver:  Solving for nuTilda, Initial residual = 0.00135091, Final residual = 2.52049e-05, No Iterations 4
ExecutionTime = 1.69 s  ClockTime = 2 s

Time = 97

smoothSolver:  Solving for Ux, Initial residual = 0.000966829, Final residual = 4.96753e-05, No Iterations 2
smoothSolver:  Solving for Uy, Initial residual = 0.00242949, Final residual = 5.27759e-05, No Iterations 2
GAMG:  Solving for p, Initial residual = 0.0900639, Final residual = 0.00853931, No Iterations 3
time step continuity errors : sum local = 0.00184362, global = 2.01315e-15, cumulative = 1.25638e-14
smoothSolver:  Solving for nuTilda, Initial residual = 0.00136471, Final residual = 2.49834e-05, No Iterations 4
ExecutionTime = 1.71 s  ClockTime = 2 s

Time = 98

smoothSolver:  Solving for Ux, Initial residual = 0.000900497, Final residual = 4.87203e-05, No Iterations 2
smoothSolver:  Solving for Uy, Initial residual = 0.00218233, Final residual = 4.74398e-05, No Iterations 2
GAMG:  Solving for p, Initial residual = 0.084647, Final residual = 0.00729614, No Iterations 3
time step continuity errors : sum local = 0.00156774, global = 1.56897e-16, cumulative = 1.27207e-14
smoothSolver:  Solving for nuTilda, Initial residual = 0.00137496, Final residual = 2.46582e-05, No Iterations 4
ExecutionTime = 1.74 s  ClockTime = 2 s

Time = 99

smoothSolver:  Solving for Ux, Initial residual = 0.000841591, Final residual = 4.80647e-05, No Iterations 2
smoothSolver:  Solving for Uy, Initial residual = 0.00199619, Final residual = 4.05594e-05, No Iterations 2
GAMG:  Solving for p, Initial residual = 0.0793289, Final residual = 0.00725995, No Iterations 3
time step continuity errors : sum local = 0.00155032, global = 5.33388e-16, cumulative = 1.32541e-14
smoothSolver:  Solving for nuTilda, Initial residual = 0.00138298, Final residual = 2.42421e-05, No Iterations 4
ExecutionTime = 1.75 s  ClockTime = 2 s

Time = 100

smoothSolver:  Solving for Ux, Initial residual = 0.000786043, Final residual = 4.64943e-05, No Iterations 2
smoothSolver:  Solving for Uy, Initial residual = 0.00178796, Final residual = 3.85917e-05, No Iterations 2
GAMG:  Solving for p, Initial residual = 0.0756962, Final residual = 0.00748662, No Iterations 3
time step continuity errors : sum local = 0.00158938, global = 9.74548e-15, cumulative = 2.29996e-14
smoothSolver:  Solving for nuTilda, Initial residual = 0.00138624, Final residual = 2.3743e-05, No Iterations 4
ExecutionTime = 1.81 s  ClockTime = 2 s

Time = 101

smoothSolver:  Solving for Ux, Initial residual = 0.000800332, Final residual = 4.55015e-05, No Iterations 2
smoothSolver:  Solving for Uy, Initial residual = 0.00166395, Final residual = 4.21528e-05, No Iterations 2
GAMG:  Solving for p, Initial residual = 0.0717618, Final residual = 0.00677211, No Iterations 3
time step continuity errors : sum local = 0.00143262, global = -5.25382e-16, cumulative = 2.24742e-14
smoothSolver:  Solving for nuTilda, Initial residual = 0.00138709, Final residual = 2.31586e-05, No Iterations 4
ExecutionTime = 1.83 s  ClockTime = 2 s

Time = 102

smoothSolver:  Solving for Ux, Initial residual = 0.000836401, Final residual = 4.46859e-05, No Iterations 2
smoothSolver:  Solving for Uy, Initial residual = 0.00180117, Final residual = 4.26904e-05, No Iterations 2
GAMG:  Solving for p, Initial residual = 0.0673315, Final residual = 0.0054574, No Iterations 3
time step continuity errors : sum local = 0.00113184, global = 2.34723e-15, cumulative = 2.48214e-14
smoothSolver:  Solving for nuTilda, Initial residual = 0.00138342, Final residual = 2.2495e-05, No Iterations 4
ExecutionTime = 1.84 s  ClockTime = 2 s

Time = 103

smoothSolver:  Solving for Ux, Initial residual = 0.000811737, Final residual = 4.23605e-05, No Iterations 2
smoothSolver:  Solving for Uy, Initial residual = 0.00182201, Final residual = 4.02155e-05, No Iterations 2
GAMG:  Solving for p, Initial residual = 0.0627201, Final residual = 0.00619587, No Iterations 3
time step continuity errors : sum local = 0.00129154, global = -1.34506e-16, cumulative = 2.46869e-14
smoothSolver:  Solving for nuTilda, Initial residual = 0.00137619, Final residual = 2.17332e-05, No Iterations 4
ExecutionTime = 1.86 s  ClockTime = 2 s

Time = 104

smoothSolver:  Solving for Ux, Initial residual = 0.000735875, Final residual = 3.77473e-05, No Iterations 2
smoothSolver:  Solving for Uy, Initial residual = 0.00171859, Final residual = 3.65583e-05, No Iterations 2
GAMG:  Solving for p, Initial residual = 0.0596877, Final residual = 0.00260469, No Iterations 4
time step continuity errors : sum local = 0.000541379, global = 2.81783e-16, cumulative = 2.49687e-14
smoothSolver:  Solving for nuTilda, Initial residual = 0.00136342, Final residual = 2.0875e-05, No Iterations 4
ExecutionTime = 1.88 s  ClockTime = 2 s

Time = 105

smoothSolver:  Solving for Ux, Initial residual = 0.000648322, Final residual = 3.48167e-05, No Iterations 2
smoothSolver:  Solving for Uy, Initial residual = 0.00150632, Final residual = 3.37413e-05, No Iterations 2
GAMG:  Solving for p, Initial residual = 0.0562803, Final residual = 0.00522345, No Iterations 3
time step continuity errors : sum local = 0.00108804, global = -4.18017e-15, cumulative = 2.07885e-14
smoothSolver:  Solving for nuTilda, Initial residual = 0.0013465, Final residual = 1.99403e-05, No Iterations 4
ExecutionTime = 1.89 s  ClockTime = 2 s

Time = 106

smoothSolver:  Solving for Ux, Initial residual = 0.000591798, Final residual = 3.30128e-05, No Iterations 2
smoothSolver:  Solving for Uy, Initial residual = 0.00131776, Final residual = 2.93767e-05, No Iterations 2
GAMG:  Solving for p, Initial residual = 0.0527255, Final residual = 0.00498587, No Iterations 3
time step continuity errors : sum local = 0.00104182, global = 2.14685e-15, cumulative = 2.29354e-14
smoothSolver:  Solving for nuTilda, Initial residual = 0.00132364, Final residual = 1.89343e-05, No Iterations 4
ExecutionTime = 1.91 s  ClockTime = 2 s

Time = 107

smoothSolver:  Solving for Ux, Initial residual = 0.000568523, Final residual = 3.14724e-05, No Iterations 2
smoothSolver:  Solving for Uy, Initial residual = 0.00118023, Final residual = 2.69824e-05, No Iterations 2
GAMG:  Solving for p, Initial residual = 0.0488673, Final residual = 0.0046509, No Iterations 3
time step continuity errors : sum local = 0.000956785, global = 8.23778e-15, cumulative = 3.11732e-14
smoothSolver:  Solving for nuTilda, Initial residual = 0.00129693, Final residual = 1.78728e-05, No Iterations 4
ExecutionTime = 1.93 s  ClockTime = 2 s

Time = 108

smoothSolver:  Solving for Ux, Initial residual = 0.00057263, Final residual = 3.04816e-05, No Iterations 2
smoothSolver:  Solving for Uy, Initial residual = 0.00114867, Final residual = 2.92232e-05, No Iterations 2
GAMG:  Solving for p, Initial residual = 0.0464439, Final residual = 0.00184232, No Iterations 4
time step continuity errors : sum local = 0.000375577, global = 1.32507e-15, cumulative = 3.24982e-14
smoothSolver:  Solving for nuTilda, Initial residual = 0.00126444, Final residual = 1.67737e-05, No Iterations 4
ExecutionTime = 1.95 s  ClockTime = 2 s

Time = 109

smoothSolver:  Solving for Ux, Initial residual = 0.000590675, Final residual = 2.92418e-05, No Iterations 2
smoothSolver:  Solving for Uy, Initial residual = 0.00121634, Final residual = 3.3125e-05, No Iterations 2
GAMG:  Solving for p, Initial residual = 0.0439522, Final residual = 0.00420542, No Iterations 3
time step continuity errors : sum local = 0.000857972, global = -7.23187e-15, cumulative = 2.52664e-14
smoothSolver:  Solving for nuTilda, Initial residual = 0.00122828, Final residual = 1.56311e-05, No Iterations 4
ExecutionTime = 1.97 s  ClockTime = 2 s

Time = 110

smoothSolver:  Solving for Ux, Initial residual = 0.000559456, Final residual = 2.65169e-05, No Iterations 2
smoothSolver:  Solving for Uy, Initial residual = 0.00122756, Final residual = 3.15037e-05, No Iterations 2
GAMG:  Solving for p, Initial residual = 0.0415337, Final residual = 0.00374425, No Iterations 3
time step continuity errors : sum local = 0.000756095, global = -8.59852e-15, cumulative = 1.66679e-14
smoothSolver:  Solving for nuTilda, Initial residual = 0.00118625, Final residual = 1.44605e-05, No Iterations 4
ExecutionTime = 1.99 s  ClockTime = 2 s

Time = 111

smoothSolver:  Solving for Ux, Initial residual = 0.000505379, Final residual = 2.32519e-05, No Iterations 2
smoothSolver:  Solving for Uy, Initial residual = 0.00115614, Final residual = 2.70311e-05, No Iterations 2
GAMG:  Solving for p, Initial residual = 0.0383823, Final residual = 0.00195915, No Iterations 4
time step continuity errors : sum local = 0.000396675, global = 5.73575e-15, cumulative = 2.24036e-14
smoothSolver:  Solving for nuTilda, Initial residual = 0.00114038, Final residual = 1.32655e-05, No Iterations 4
ExecutionTime = 2 s  ClockTime = 2 s

Time = 112

smoothSolver:  Solving for Ux, Initial residual = 0.000462063, Final residual = 2.09433e-05, No Iterations 2
smoothSolver:  Solving for Uy, Initial residual = 0.00109184, Final residual = 2.52009e-05, No Iterations 2
GAMG:  Solving for p, Initial residual = 0.0359752, Final residual = 0.00170715, No Iterations 4
time step continuity errors : sum local = 0.000343871, global = -5.12974e-15, cumulative = 1.72739e-14
smoothSolver:  Solving for nuTilda, Initial residual = 0.00108911, Final residual = 1.20738e-05, No Iterations 4
ExecutionTime = 2.03 s  ClockTime = 2 s

Time = 113

smoothSolver:  Solving for Ux, Initial residual = 0.0004181, Final residual = 1.84875e-05, No Iterations 2
smoothSolver:  Solving for Uy, Initial residual = 0.00096878, Final residual = 2.34476e-05, No Iterations 2
GAMG:  Solving for p, Initial residual = 0.0341697, Final residual = 0.00331531, No Iterations 3
time step continuity errors : sum local = 0.000668273, global = -8.17861e-16, cumulative = 1.6456e-14
smoothSolver:  Solving for nuTilda, Initial residual = 0.00103462, Final residual = 1.08943e-05, No Iterations 4
ExecutionTime = 2.05 s  ClockTime = 2 s

Time = 114

smoothSolver:  Solving for Ux, Initial residual = 0.000399111, Final residual = 1.67386e-05, No Iterations 2
smoothSolver:  Solving for Uy, Initial residual = 0.000881331, Final residual = 2.21625e-05, No Iterations 2
GAMG:  Solving for p, Initial residual = 0.0319609, Final residual = 0.00298775, No Iterations 3
time step continuity errors : sum local = 0.000598178, global = 4.34355e-15, cumulative = 2.07996e-14
smoothSolver:  Solving for nuTilda, Initial residual = 0.000975564, Final residual = 9.74036e-06, No Iterations 4
ExecutionTime = 2.07 s  ClockTime = 2 s

Time = 115

smoothSolver:  Solving for Ux, Initial residual = 0.000395132, Final residual = 1.55342e-05, No Iterations 2
smoothSolver:  Solving for Uy, Initial residual = 0.000836096, Final residual = 2.18329e-05, No Iterations 2
GAMG:  Solving for p, Initial residual = 0.0294017, Final residual = 0.00126279, No Iterations 4
time step continuity errors : sum local = 0.00025196, global = 5.31922e-15, cumulative = 2.61188e-14
smoothSolver:  Solving for nuTilda, Initial residual = 0.000914455, Final residual = 8.62907e-06, No Iterations 4
ExecutionTime = 2.09 s  ClockTime = 2 s

Time = 116

smoothSolver:  Solving for Ux, Initial residual = 0.000396818, Final residual = 1.47778e-05, No Iterations 2
smoothSolver:  Solving for Uy, Initial residual = 0.000827178, Final residual = 2.39156e-05, No Iterations 2
GAMG:  Solving for p, Initial residual = 0.0275602, Final residual = 0.00272944, No Iterations 3
time step continuity errors : sum local = 0.00054283, global = -5.19948e-15, cumulative = 2.09193e-14
smoothSolver:  Solving for nuTilda, Initial residual = 0.000850062, Final residual = 8.38089e-05, No Iterations 2
ExecutionTime = 2.11 s  ClockTime = 2 s

Time = 117

smoothSolver:  Solving for Ux, Initial residual = 0.000368776, Final residual = 1.31463e-05, No Iterations 2
smoothSolver:  Solving for Uy, Initial residual = 0.000803251, Final residual = 2.36092e-05, No Iterations 2
GAMG:  Solving for p, Initial residual = 0.0262578, Final residual = 0.00105711, No Iterations 4
time step continuity errors : sum local = 0.000210131, global = 6.85007e-15, cumulative = 2.77694e-14
smoothSolver:  Solving for nuTilda, Initial residual = 0.000791878, Final residual = 7.54656e-05, No Iterations 2
ExecutionTime = 2.13 s  ClockTime = 2 s

Time = 118

smoothSolver:  Solving for Ux, Initial residual = 0.000326897, Final residual = 1.11153e-05, No Iterations 2
smoothSolver:  Solving for Uy, Initial residual = 0.000793738, Final residual = 2.06428e-05, No Iterations 2
GAMG:  Solving for p, Initial residual = 0.0244177, Final residual = 0.000945995, No Iterations 4
time step continuity errors : sum local = 0.000187555, global = 1.02514e-14, cumulative = 3.80208e-14
smoothSolver:  Solving for nuTilda, Initial residual = 0.000731627, Final residual = 6.76778e-05, No Iterations 2
ExecutionTime = 2.15 s  ClockTime = 2 s

Time = 119

smoothSolver:  Solving for Ux, Initial residual = 0.000296455, Final residual = 9.52091e-06, No Iterations 2
smoothSolver:  Solving for Uy, Initial residual = 0.000774338, Final residual = 1.78023e-05, No Iterations 2
GAMG:  Solving for p, Initial residual = 0.0223237, Final residual = 0.00222813, No Iterations 3
time step continuity errors : sum local = 0.000441753, global = 3.27119e-15, cumulative = 4.1292e-14
smoothSolver:  Solving for nuTilda, Initial residual = 0.000671847, Final residual = 6.02693e-05, No Iterations 2
ExecutionTime = 2.16 s  ClockTime = 2 s

Time = 120

smoothSolver:  Solving for Ux, Initial residual = 0.000270416, Final residual = 7.91511e-06, No Iterations 2
smoothSolver:  Solving for Uy, Initial residual = 0.000713955, Final residual = 1.61028e-05, No Iterations 2
GAMG:  Solving for p, Initial residual = 0.0209457, Final residual = 0.00100826, No Iterations 4
time step continuity errors : sum local = 0.000198934, global = 9.40782e-15, cumulative = 5.06998e-14
smoothSolver:  Solving for nuTilda, Initial residual = 0.000611369, Final residual = 5.32399e-05, No Iterations 2
ExecutionTime = 2.18 s  ClockTime = 2 s

Time = 121

smoothSolver:  Solving for Ux, Initial residual = 0.000255911, Final residual = 6.9018e-06, No Iterations 2
smoothSolver:  Solving for Uy, Initial residual = 0.00063883, Final residual = 1.51325e-05, No Iterations 2
GAMG:  Solving for p, Initial residual = 0.0198419, Final residual = 0.00100595, No Iterations 4
time step continuity errors : sum local = 0.000198934, global = 6.34328e-16, cumulative = 5.13341e-14
smoothSolver:  Solving for nuTilda, Initial residual = 0.00055273, Final residual = 4.66284e-05, No Iterations 2
ExecutionTime = 2.21 s  ClockTime = 2 s

Time = 122

smoothSolver:  Solving for Ux, Initial residual = 0.000257145, Final residual = 6.36966e-06, No Iterations 2
smoothSolver:  Solving for Uy, Initial residual = 0.000623334, Final residual = 1.51308e-05, No Iterations 2
GAMG:  Solving for p, Initial residual = 0.018613, Final residual = 0.00170871, No Iterations 3
time step continuity errors : sum local = 0.000337755, global = -3.46116e-15, cumulative = 4.7873e-14
smoothSolver:  Solving for nuTilda, Initial residual = 0.000494844, Final residual = 4.04772e-05, No Iterations 2
ExecutionTime = 2.23 s  ClockTime = 2 s

Time = 123

smoothSolver:  Solving for Ux, Initial residual = 0.000245721, Final residual = 5.59244e-06, No Iterations 2
smoothSolver:  Solving for Uy, Initial residual = 0.000616429, Final residual = 1.52861e-05, No Iterations 2
GAMG:  Solving for p, Initial residual = 0.0168483, Final residual = 0.00166555, No Iterations 3
time step continuity errors : sum local = 0.000329271, global = -4.87613e-15, cumulative = 4.29968e-14
smoothSolver:  Solving for nuTilda, Initial residual = 0.000440302, Final residual = 3.48276e-05, No Iterations 2
ExecutionTime = 2.24 s  ClockTime = 2 s

Time = 124

smoothSolver:  Solving for Ux, Initial residual = 0.00022574, Final residual = 4.94518e-06, No Iterations 2
smoothSolver:  Solving for Uy, Initial residual = 0.000600118, Final residual = 1.56298e-05, No Iterations 2
GAMG:  Solving for p, Initial residual = 0.0156704, Final residual = 0.00151919, No Iterations 3
time step continuity errors : sum local = 0.000300279, global = 3.38193e-16, cumulative = 4.3335e-14
smoothSolver:  Solving for nuTilda, Initial residual = 0.000387957, Final residual = 2.97179e-05, No Iterations 2
ExecutionTime = 2.26 s  ClockTime = 2 s

Time = 125

smoothSolver:  Solving for Ux, Initial residual = 0.000201494, Final residual = 4.26302e-06, No Iterations 2
smoothSolver:  Solving for Uy, Initial residual = 0.000573108, Final residual = 1.46544e-05, No Iterations 2
GAMG:  Solving for p, Initial residual = 0.01492, Final residual = 0.000711614, No Iterations 4
time step continuity errors : sum local = 0.000139596, global = -2.84408e-15, cumulative = 4.0491e-14
smoothSolver:  Solving for nuTilda, Initial residual = 0.000340106, Final residual = 2.5161e-05, No Iterations 2
ExecutionTime = 2.28 s  ClockTime = 2 s

Time = 126

smoothSolver:  Solving for Ux, Initial residual = 0.000177357, Final residual = 3.70119e-06, No Iterations 2
smoothSolver:  Solving for Uy, Initial residual = 0.000539764, Final residual = 1.18433e-05, No Iterations 2
GAMG:  Solving for p, Initial residual = 0.0139257, Final residual = 0.00134536, No Iterations 3
time step continuity errors : sum local = 0.000263904, global = -8.30971e-15, cumulative = 3.21813e-14
smoothSolver:  Solving for nuTilda, Initial residual = 0.000295432, Final residual = 2.11609e-05, No Iterations 2
ExecutionTime = 2.3 s  ClockTime = 2 s

Time = 127

smoothSolver:  Solving for Ux, Initial residual = 0.000161767, Final residual = 3.16744e-06, No Iterations 2
smoothSolver:  Solving for Uy, Initial residual = 0.000501277, Final residual = 9.55626e-06, No Iterations 2
GAMG:  Solving for p, Initial residual = 0.012645, Final residual = 0.00115029, No Iterations 3
time step continuity errors : sum local = 0.000225105, global = 3.30876e-15, cumulative = 3.549e-14
smoothSolver:  Solving for nuTilda, Initial residual = 0.000255958, Final residual = 1.76822e-05, No Iterations 2
ExecutionTime = 2.31 s  ClockTime = 2 s

Time = 128

smoothSolver:  Solving for Ux, Initial residual = 0.000162267, Final residual = 2.92112e-06, No Iterations 2
smoothSolver:  Solving for Uy, Initial residual = 0.000464903, Final residual = 8.32926e-06, No Iterations 2
GAMG:  Solving for p, Initial residual = 0.01168, Final residual = 0.00101974, No Iterations 3
time step continuity errors : sum local = 0.000199885, global = 4.00489e-15, cumulative = 3.94949e-14
smoothSolver:  Solving for nuTilda, Initial residual = 0.000219793, Final residual = 1.46942e-05, No Iterations 2
ExecutionTime = 2.33 s  ClockTime = 2 s

Time = 129

smoothSolver:  Solving for Ux, Initial residual = 0.000166137, Final residual = 2.84866e-06, No Iterations 2
smoothSolver:  Solving for Uy, Initial residual = 0.000449945, Final residual = 7.98732e-06, No Iterations 2
GAMG:  Solving for p, Initial residual = 0.0110247, Final residual = 0.000532535, No Iterations 4
time step continuity errors : sum local = 0.000103947, global = -2.20996e-15, cumulative = 3.72849e-14
smoothSolver:  Solving for nuTilda, Initial residual = 0.000188761, Final residual = 1.21577e-05, No Iterations 2
ExecutionTime = 2.35 s  ClockTime = 2 s

Time = 130

smoothSolver:  Solving for Ux, Initial residual = 0.000163488, Final residual = 2.60589e-06, No Iterations 2
smoothSolver:  Solving for Uy, Initial residual = 0.000459458, Final residual = 8.45217e-06, No Iterations 2
GAMG:  Solving for p, Initial residual = 0.0103102, Final residual = 0.000524809, No Iterations 4
time step continuity errors : sum local = 0.000103052, global = -5.12721e-15, cumulative = 3.21577e-14
smoothSolver:  Solving for nuTilda, Initial residual = 0.000160879, Final residual = 1.00261e-05, No Iterations 2
ExecutionTime = 2.37 s  ClockTime = 2 s

Time = 131

smoothSolver:  Solving for Ux, Initial residual = 0.000155629, Final residual = 2.52035e-06, No Iterations 2
smoothSolver:  Solving for Uy, Initial residual = 0.000467134, Final residual = 8.67552e-06, No Iterations 2
GAMG:  Solving for p, Initial residual = 0.00938283, Final residual = 0.000762093, No Iterations 3
time step continuity errors : sum local = 0.000148748, global = 2.34201e-15, cumulative = 3.44997e-14
smoothSolver:  Solving for nuTilda, Initial residual = 0.000137764, Final residual = 8.24809e-06, No Iterations 2
ExecutionTime = 2.39 s  ClockTime = 2 s

Time = 132

smoothSolver:  Solving for Ux, Initial residual = 0.000141716, Final residual = 2.29452e-06, No Iterations 2
smoothSolver:  Solving for Uy, Initial residual = 0.000447254, Final residual = 8.35109e-06, No Iterations 2
GAMG:  Solving for p, Initial residual = 0.00855155, Final residual = 0.000774847, No Iterations 3
time step continuity errors : sum local = 0.000150777, global = 5.10172e-15, cumulative = 3.96015e-14
smoothSolver:  Solving for nuTilda, Initial residual = 0.000117115, Final residual = 6.78277e-06, No Iterations 2
ExecutionTime = 2.4 s  ClockTime = 2 s

Time = 133

smoothSolver:  Solving for Ux, Initial residual = 0.000127365, Final residual = 2.02791e-06, No Iterations 2
smoothSolver:  Solving for Uy, Initial residual = 0.000404622, Final residual = 7.07012e-06, No Iterations 2
GAMG:  Solving for p, Initial residual = 0.00803636, Final residual = 0.000430297, No Iterations 4
time step continuity errors : sum local = 8.40664e-05, global = 4.81373e-15, cumulative = 4.44152e-14
smoothSolver:  Solving for nuTilda, Initial residual = 0.000100456, Final residual = 5.57949e-06, No Iterations 2
ExecutionTime = 2.42 s  ClockTime = 2 s

Time = 134

smoothSolver:  Solving for Ux, Initial residual = 0.000117974, Final residual = 1.76482e-06, No Iterations 2
smoothSolver:  Solving for Uy, Initial residual = 0.000373168, Final residual = 5.66677e-06, No Iterations 2
GAMG:  Solving for p, Initial residual = 0.00754236, Final residual = 0.000740417, No Iterations 3
time step continuity errors : sum local = 0.000144505, global = 3.30987e-15, cumulative = 4.77251e-14
smoothSolver:  Solving for nuTilda, Initial residual = 8.56348e-05, Final residual = 4.605e-06, No Iterations 2
ExecutionTime = 2.44 s  ClockTime = 2 s

Time = 135

smoothSolver:  Solving for Ux, Initial residual = 0.000116053, Final residual = 1.69383e-06, No Iterations 2
smoothSolver:  Solving for Uy, Initial residual = 0.000368408, Final residual = 4.87747e-06, No Iterations 2
GAMG:  Solving for p, Initial residual = 0.00691022, Final residual = 0.000585443, No Iterations 3
time step continuity errors : sum local = 0.00011469, global = -2.95809e-15, cumulative = 4.4767e-14
smoothSolver:  Solving for nuTilda, Initial residual = 7.41299e-05, Final residual = 3.81399e-06, No Iterations 2
ExecutionTime = 2.46 s  ClockTime = 2 s

Time = 136

smoothSolver:  Solving for Ux, Initial residual = 0.000116748, Final residual = 1.6666e-06, No Iterations 2
[...]
smoothSolver:  Solving for nuTilda, Initial residual = 1.4785e-06, Final residual = 1.16159e-08, No Iterations 2
ExecutionTime = 8.57 s  ClockTime = 9 s

Time = 516

smoothSolver:  Solving for Ux, Initial residual = 7.77749e-07, Final residual = 1.03629e-08, No Iterations 2
smoothSolver:  Solving for Uy, Initial residual = 7.82023e-07, Final residual = 1.81945e-08, No Iterations 2
GAMG:  Solving for p, Initial residual = 0.000138347, Final residual = 4.49808e-06, No Iterations 2
time step continuity errors : sum local = 9.0302e-07, global = -1.81056e-15, cumulative = 3.06647e-14
smoothSolver:  Solving for nuTilda, Initial residual = 9.29861e-07, Final residual = 1.18513e-08, No Iterations 2
ExecutionTime = 8.58 s  ClockTime = 9 s

Time = 517

smoothSolver:  Solving for Ux, Initial residual = 7.98316e-07, Final residual = 1.17584e-08, No Iterations 2
smoothSolver:  Solving for Uy, Initial residual = 7.64801e-07, Final residual = 1.64862e-08, No Iterations 2
GAMG:  Solving for p, Initial residual = 0.000135893, Final residual = 4.43589e-06, No Iterations 2
time step continuity errors : sum local = 8.89023e-07, global = 1.36049e-15, cumulative = 3.20252e-14
smoothSolver:  Solving for nuTilda, Initial residual = 1.47866e-06, Final residual = 1.16108e-08, No Iterations 2
ExecutionTime = 8.59 s  ClockTime = 9 s

Time = 518

smoothSolver:  Solving for Ux, Initial residual = 7.75525e-07, Final residual = 1.02151e-08, No Iterations 2
smoothSolver:  Solving for Uy, Initial residual = 7.70845e-07, Final residual = 1.65768e-08, No Iterations 2
GAMG:  Solving for p, Initial residual = 0.000138279, Final residual = 4.71911e-06, No Iterations 2
time step continuity errors : sum local = 9.43023e-07, global = -3.62745e-15, cumulative = 2.83977e-14
smoothSolver:  Solving for nuTilda, Initial residual = 9.29657e-07, Final residual = 1.18599e-08, No Iterations 2
ExecutionTime = 8.61 s  ClockTime = 9 s

Time = 519

smoothSolver:  Solving for Ux, Initial residual = 7.94827e-07, Final residual = 1.16765e-08, No Iterations 2
smoothSolver:  Solving for Uy, Initial residual = 7.75702e-07, Final residual = 1.61848e-08, No Iterations 2
GAMG:  Solving for p, Initial residual = 0.000136507, Final residual = 4.28946e-06, No Iterations 2
time step continuity errors : sum local = 8.63098e-07, global = -1.93882e-16, cumulative = 2.82038e-14
smoothSolver:  Solving for nuTilda, Initial residual = 1.47836e-06, Final residual = 1.1612e-08, No Iterations 2
ExecutionTime = 8.62 s  ClockTime = 9 s

Time = 520

smoothSolver:  Solving for Ux, Initial residual = 7.68022e-07, Final residual = 1.01342e-08, No Iterations 2
smoothSolver:  Solving for Uy, Initial residual = 7.60514e-07, Final residual = 1.65072e-08, No Iterations 2
GAMG:  Solving for p, Initial residual = 0.000137844, Final residual = 4.76368e-06, No Iterations 2
time step continuity errors : sum local = 9.5019e-07, global = 7.03836e-15, cumulative = 3.52422e-14
smoothSolver:  Solving for nuTilda, Initial residual = 9.29358e-07, Final residual = 1.18421e-08, No Iterations 2
ExecutionTime = 8.64 s  ClockTime = 9 s

Time = 521

smoothSolver:  Solving for Ux, Initial residual = 7.99302e-07, Final residual = 1.17806e-08, No Iterations 2
smoothSolver:  Solving for Uy, Initial residual = 8.09545e-07, Final residual = 1.79062e-08, No Iterations 2
GAMG:  Solving for p, Initial residual = 0.000136704, Final residual = 4.37143e-06, No Iterations 2
time step continuity errors : sum local = 8.79257e-07, global = 9.93207e-15, cumulative = 4.51743e-14
smoothSolver:  Solving for nuTilda, Initial residual = 1.47777e-06, Final residual = 1.16178e-08, No Iterations 2
ExecutionTime = 8.66 s  ClockTime = 9 s

Time = 522

smoothSolver:  Solving for Ux, Initial residual = 7.65279e-07, Final residual = 1.02544e-08, No Iterations 2
smoothSolver:  Solving for Uy, Initial residual = 7.75167e-07, Final residual = 1.78573e-08, No Iterations 2
GAMG:  Solving for p, Initial residual = 0.00013791, Final residual = 4.56954e-06, No Iterations 2
time step continuity errors : sum local = 9.13347e-07, global = -1.38055e-16, cumulative = 4.50362e-14
smoothSolver:  Solving for nuTilda, Initial residual = 9.29045e-07, Final residual = 1.18184e-08, No Iterations 2
ExecutionTime = 8.67 s  ClockTime = 9 s

Time = 523

smoothSolver:  Solving for Ux, Initial residual = 8.07116e-07, Final residual = 1.17997e-08, No Iterations 2
smoothSolver:  Solving for Uy, Initial residual = 8.40969e-07, Final residual = 1.89581e-08, No Iterations 2
GAMG:  Solving for p, Initial residual = 0.000136508, Final residual = 4.54397e-06, No Iterations 2
time step continuity errors : sum local = 9.11304e-07, global = -1.67491e-15, cumulative = 4.33613e-14
smoothSolver:  Solving for nuTilda, Initial residual = 1.47719e-06, Final residual = 1.16328e-08, No Iterations 2
ExecutionTime = 8.69 s  ClockTime = 9 s

Time = 524

smoothSolver:  Solving for Ux, Initial residual = 7.68704e-07, Final residual = 1.03646e-08, No Iterations 2
smoothSolver:  Solving for Uy, Initial residual = 7.99851e-07, Final residual = 1.92466e-08, No Iterations 2
GAMG:  Solving for p, Initial residual = 0.000137932, Final residual = 4.44861e-06, No Iterations 2
time step continuity errors : sum local = 8.91464e-07, global = 1.19006e-15, cumulative = 4.45514e-14
smoothSolver:  Solving for nuTilda, Initial residual = 9.28586e-07, Final residual = 1.1793e-08, No Iterations 2
ExecutionTime = 8.7 s  ClockTime = 9 s

Time = 525

smoothSolver:  Solving for Ux, Initial residual = 8.04083e-07, Final residual = 1.16454e-08, No Iterations 2
smoothSolver:  Solving for Uy, Initial residual = 8.35225e-07, Final residual = 1.87748e-08, No Iterations 2
GAMG:  Solving for p, Initial residual = 0.000136431, Final residual = 4.55492e-06, No Iterations 2
time step continuity errors : sum local = 9.12178e-07, global = 4.10164e-15, cumulative = 4.8653e-14
smoothSolver:  Solving for nuTilda, Initial residual = 1.47665e-06, Final residual = 1.16361e-08, No Iterations 2
ExecutionTime = 8.72 s  ClockTime = 9 s

Time = 526

smoothSolver:  Solving for Ux, Initial residual = 7.70707e-07, Final residual = 1.03451e-08, No Iterations 2
smoothSolver:  Solving for Uy, Initial residual = 8.08746e-07, Final residual = 1.92914e-08, No Iterations 2
GAMG:  Solving for p, Initial residual = 0.000137937, Final residual = 4.41764e-06, No Iterations 2
time step continuity errors : sum local = 8.86303e-07, global = 2.69338e-15, cumulative = 5.13464e-14
smoothSolver:  Solving for nuTilda, Initial residual = 9.28017e-07, Final residual = 1.17646e-08, No Iterations 2
ExecutionTime = 8.73 s  ClockTime = 9 s

Time = 527

smoothSolver:  Solving for Ux, Initial residual = 7.90643e-07, Final residual = 1.13353e-08, No Iterations 2
smoothSolver:  Solving for Uy, Initial residual = 8.30507e-07, Final residual = 1.88886e-08, No Iterations 2
GAMG:  Solving for p, Initial residual = 0.000136357, Final residual = 4.48747e-06, No Iterations 2
time step continuity errors : sum local = 8.98854e-07, global = -4.09997e-15, cumulative = 4.72464e-14
smoothSolver:  Solving for nuTilda, Initial residual = 1.47613e-06, Final residual = 1.16204e-08, No Iterations 2
ExecutionTime = 8.75 s  ClockTime = 9 s

Time = 528

smoothSolver:  Solving for Ux, Initial residual = 7.68015e-07, Final residual = 1.01333e-08, No Iterations 2
smoothSolver:  Solving for Uy, Initial residual = 8.1035e-07, Final residual = 1.8636e-08, No Iterations 2
GAMG:  Solving for p, Initial residual = 0.000137836, Final residual = 4.47481e-06, No Iterations 2
time step continuity errors : sum local = 8.97257e-07, global = -1.93624e-15, cumulative = 4.53102e-14
smoothSolver:  Solving for nuTilda, Initial residual = 9.27387e-07, Final residual = 1.17369e-08, No Iterations 2
ExecutionTime = 8.76 s  ClockTime = 9 s

Time = 529

smoothSolver:  Solving for Ux, Initial residual = 7.85737e-07, Final residual = 1.10111e-08, No Iterations 2
smoothSolver:  Solving for Uy, Initial residual = 8.25353e-07, Final residual = 1.91929e-08, No Iterations 2
GAMG:  Solving for p, Initial residual = 0.000136374, Final residual = 4.43763e-06, No Iterations 2
time step continuity errors : sum local = 8.89487e-07, global = 5.30454e-15, cumulative = 5.06147e-14
smoothSolver:  Solving for nuTilda, Initial residual = 1.4756e-06, Final residual = 1.15955e-08, No Iterations 2
ExecutionTime = 8.78 s  ClockTime = 9 s

Time = 530

smoothSolver:  Solving for Ux, Initial residual = 7.67165e-07, Final residual = 1.00343e-08, No Iterations 2
smoothSolver:  Solving for Uy, Initial residual = 8.10655e-07, Final residual = 1.82595e-08, No Iterations 2
GAMG:  Solving for p, Initial residual = 0.00013756, Final residual = 4.50592e-06, No Iterations 2
time step continuity errors : sum local = 9.03029e-07, global = 9.4343e-17, cumulative = 5.07091e-14
smoothSolver:  Solving for nuTilda, Initial residual = 9.26733e-07, Final residual = 1.17242e-08, No Iterations 2
ExecutionTime = 8.79 s  ClockTime = 9 s

Time = 531

smoothSolver:  Solving for Ux, Initial residual = 7.90122e-07, Final residual = 1.0981e-08, No Iterations 2
smoothSolver:  Solving for Uy, Initial residual = 8.25929e-07, Final residual = 1.87161e-08, No Iterations 2
GAMG:  Solving for p, Initial residual = 0.000136517, Final residual = 4.42999e-06, No Iterations 2
time step continuity errors : sum local = 8.88109e-07, global = -6.35076e-15, cumulative = 4.43583e-14
smoothSolver:  Solving for nuTilda, Initial residual = 1.475e-06, Final residual = 1.15722e-08, No Iterations 2
ExecutionTime = 8.81 s  ClockTime = 9 s

Time = 532

smoothSolver:  Solving for Ux, Initial residual = 7.67396e-07, Final residual = 1.00643e-08, No Iterations 2
smoothSolver:  Solving for Uy, Initial residual = 8.08414e-07, Final residual = 1.78975e-08, No Iterations 2
GAMG:  Solving for p, Initial residual = 0.000137441, Final residual = 4.5305e-06, No Iterations 2
time step continuity errors : sum local = 9.07807e-07, global = 9.72958e-16, cumulative = 4.53313e-14
smoothSolver:  Solving for nuTilda, Initial residual = 9.26148e-07, Final residual = 1.17181e-08, No Iterations 2
ExecutionTime = 8.82 s  ClockTime = 9 s

Time = 533

smoothSolver:  Solving for Ux, Initial residual = 7.91262e-07, Final residual = 1.11254e-08, No Iterations 2
smoothSolver:  Solving for Uy, Initial residual = 8.28801e-07, Final residual = 1.83776e-08, No Iterations 2
GAMG:  Solving for p, Initial residual = 0.000136366, Final residual = 4.40684e-06, No Iterations 2
time step continuity errors : sum local = 8.83552e-07, global = 5.50632e-15, cumulative = 5.08376e-14
smoothSolver:  Solving for nuTilda, Initial residual = 1.47445e-06, Final residual = 1.15582e-08, No Iterations 2
ExecutionTime = 8.83 s  ClockTime = 9 s

Time = 534

smoothSolver:  Solving for Ux, Initial residual = 7.64415e-07, Final residual = 1.00072e-08, No Iterations 2
smoothSolver:  Solving for Uy, Initial residual = 8.15631e-07, Final residual = 1.8208e-08, No Iterations 2
GAMG:  Solving for p, Initial residual = 0.000137507, Final residual = 4.50756e-06, No Iterations 2
time step continuity errors : sum local = 9.03386e-07, global = -1.83584e-15, cumulative = 4.90017e-14
smoothSolver:  Solving for nuTilda, Initial residual = 9.25663e-07, Final residual = 1.17197e-08, No Iterations 2
ExecutionTime = 8.85 s  ClockTime = 9 s

Time = 535

smoothSolver:  Solving for Ux, Initial residual = 7.9113e-07, Final residual = 1.13167e-08, No Iterations 2
smoothSolver:  Solving for Uy, Initial residual = 8.30921e-07, Final residual = 1.85947e-08, No Iterations 2
GAMG:  Solving for p, Initial residual = 0.000136127, Final residual = 4.43645e-06, No Iterations 2
time step continuity errors : sum local = 8.89418e-07, global = 2.82272e-16, cumulative = 4.9284e-14
smoothSolver:  Solving for nuTilda, Initial residual = 1.47401e-06, Final residual = 1.15504e-08, No Iterations 2
ExecutionTime = 8.86 s  ClockTime = 9 s

Time = 536

smoothSolver:  Solving for Ux, Initial residual = 7.6902e-07, Final residual = 1.00964e-08, No Iterations 2
smoothSolver:  Solving for Uy, Initial residual = 8.13721e-07, Final residual = 1.80141e-08, No Iterations 2
GAMG:  Solving for p, Initial residual = 0.000137543, Final residual = 4.49268e-06, No Iterations 2
time step continuity errors : sum local = 9.00213e-07, global = -6.74967e-15, cumulative = 4.25343e-14
smoothSolver:  Solving for nuTilda, Initial residual = 9.25251e-07, Final residual = 1.17205e-08, No Iterations 2
ExecutionTime = 8.88 s  ClockTime = 9 s

Time = 537

smoothSolver:  Solving for Ux, Initial residual = 7.92803e-07, Final residual = 1.13729e-08, No Iterations 2
smoothSolver:  Solving for Uy, Initial residual = 8.2705e-07, Final residual = 1.83738e-08, No Iterations 2
GAMG:  Solving for p, Initial residual = 0.000136045, Final residual = 4.47522e-06, No Iterations 2
time step continuity errors : sum local = 8.97302e-07, global = 1.63334e-15, cumulative = 4.41677e-14
smoothSolver:  Solving for nuTilda, Initial residual = 1.47367e-06, Final residual = 1.15415e-08, No Iterations 2
ExecutionTime = 8.89 s  ClockTime = 9 s

Time = 538

smoothSolver:  Solving for Ux, Initial residual = 7.72813e-07, Final residual = 1.01466e-08, No Iterations 2
smoothSolver:  Solving for Uy, Initial residual = 8.10287e-07, Final residual = 1.78894e-08, No Iterations 2
GAMG:  Solving for p, Initial residual = 0.000137379, Final residual = 4.4403e-06, No Iterations 2
time step continuity errors : sum local = 8.89732e-07, global = 3.64761e-15, cumulative = 4.78153e-14
smoothSolver:  Solving for nuTilda, Initial residual = 9.24894e-07, Final residual = 1.17161e-08, No Iterations 2
ExecutionTime = 8.91 s  ClockTime = 9 s

Time = 539

smoothSolver:  Solving for Ux, Initial residual = 7.91729e-07, Final residual = 1.11748e-08, No Iterations 2
smoothSolver:  Solving for Uy, Initial residual = 8.18711e-07, Final residual = 1.86546e-08, No Iterations 2
GAMG:  Solving for p, Initial residual = 0.000135986, Final residual = 4.46104e-06, No Iterations 2
time step continuity errors : sum local = 8.94806e-07, global = -1.11574e-14, cumulative = 3.66579e-14
smoothSolver:  Solving for nuTilda, Initial residual = 1.47336e-06, Final residual = 1.15312e-08, No Iterations 2
ExecutionTime = 8.92 s  ClockTime = 9 s

Time = 540

smoothSolver:  Solving for Ux, Initial residual = 7.72749e-07, Final residual = 1.01629e-08, No Iterations 2
smoothSolver:  Solving for Uy, Initial residual = 8.10441e-07, Final residual = 1.85288e-08, No Iterations 2
GAMG:  Solving for p, Initial residual = 0.000137214, Final residual = 4.44951e-06, No Iterations 2
time step continuity errors : sum local = 8.91477e-07, global = -7.34574e-16, cumulative = 3.59233e-14
smoothSolver:  Solving for nuTilda, Initial residual = 9.2457e-07, Final residual = 1.17048e-08, No Iterations 2
ExecutionTime = 8.93 s  ClockTime = 9 s

Time = 541

smoothSolver:  Solving for Ux, Initial residual = 7.94254e-07, Final residual = 1.10043e-08, No Iterations 2
smoothSolver:  Solving for Uy, Initial residual = 8.09059e-07, Final residual = 1.8942e-08, No Iterations 2
GAMG:  Solving for p, Initial residual = 0.000135908, Final residual = 4.44467e-06, No Iterations 2
time step continuity errors : sum local = 8.91461e-07, global = -1.65645e-16, cumulative = 3.57577e-14
smoothSolver:  Solving for nuTilda, Initial residual = 1.47308e-06, Final residual = 1.15199e-08, No Iterations 2
ExecutionTime = 8.95 s  ClockTime = 9 s

Time = 542

smoothSolver:  Solving for Ux, Initial residual = 7.73413e-07, Final residual = 1.02331e-08, No Iterations 2
smoothSolver:  Solving for Uy, Initial residual = 8.07934e-07, Final residual = 1.85041e-08, No Iterations 2
GAMG:  Solving for p, Initial residual = 0.000137099, Final residual = 4.47499e-06, No Iterations 2
time step continuity errors : sum local = 8.96751e-07, global = 4.00166e-15, cumulative = 3.97593e-14
smoothSolver:  Solving for nuTilda, Initial residual = 9.24278e-07, Final residual = 1.16895e-08, No Iterations 2
ExecutionTime = 8.96 s  ClockTime = 9 s

Time = 543

smoothSolver:  Solving for Ux, Initial residual = 7.94866e-07, Final residual = 1.10556e-08, No Iterations 2
smoothSolver:  Solving for Uy, Initial residual = 8.04913e-07, Final residual = 1.88596e-08, No Iterations 2
GAMG:  Solving for p, Initial residual = 0.000135782, Final residual = 4.39097e-06, No Iterations 2
time step continuity errors : sum local = 8.80666e-07, global = -5.14474e-15, cumulative = 3.46146e-14
smoothSolver:  Solving for nuTilda, Initial residual = 1.47281e-06, Final residual = 1.15076e-08, No Iterations 2
ExecutionTime = 8.98 s  ClockTime = 9 s

Time = 544

smoothSolver:  Solving for Ux, Initial residual = 7.69729e-07, Final residual = 1.01121e-08, No Iterations 2
smoothSolver:  Solving for Uy, Initial residual = 8.01577e-07, Final residual = 1.82643e-08, No Iterations 2
GAMG:  Solving for p, Initial residual = 0.000136969, Final residual = 4.46239e-06, No Iterations 2
time step continuity errors : sum local = 8.94698e-07, global = -3.91992e-15, cumulative = 3.06947e-14
smoothSolver:  Solving for nuTilda, Initial residual = 9.24017e-07, Final residual = 1.16787e-08, No Iterations 2
ExecutionTime = 8.99 s  ClockTime = 9 s

Time = 545

smoothSolver:  Solving for Ux, Initial residual = 7.90992e-07, Final residual = 1.11984e-08, No Iterations 2
smoothSolver:  Solving for Uy, Initial residual = 8.04613e-07, Final residual = 1.86092e-08, No Iterations 2
GAMG:  Solving for p, Initial residual = 0.000135669, Final residual = 4.38687e-06, No Iterations 2
time step continuity errors : sum local = 8.79638e-07, global = 2.56766e-15, cumulative = 3.32623e-14
smoothSolver:  Solving for nuTilda, Initial residual = 1.47257e-06, Final residual = 1.15004e-08, No Iterations 2
ExecutionTime = 9.01 s  ClockTime = 9 s

Time = 546

smoothSolver:  Solving for Ux, Initial residual = 7.67301e-07, Final residual = 1.00623e-08, No Iterations 2
smoothSolver:  Solving for Uy, Initial residual = 7.9333e-07, Final residual = 1.78432e-08, No Iterations 2
GAMG:  Solving for p, Initial residual = 0.000136899, Final residual = 4.45968e-06, No Iterations 2
time step continuity errors : sum local = 8.94206e-07, global = -3.90885e-15, cumulative = 2.93535e-14
smoothSolver:  Solving for nuTilda, Initial residual = 9.23857e-07, Final residual = 1.16796e-08, No Iterations 2
ExecutionTime = 9.02 s  ClockTime = 9 s

Time = 547

smoothSolver:  Solving for Ux, Initial residual = 7.90944e-07, Final residual = 1.12936e-08, No Iterations 2
smoothSolver:  Solving for Uy, Initial residual = 7.96496e-07, Final residual = 1.79599e-08, No Iterations 2
GAMG:  Solving for p, Initial residual = 0.000135551, Final residual = 4.41626e-06, No Iterations 2
time step continuity errors : sum local = 8.85488e-07, global = 2.31245e-15, cumulative = 3.16659e-14
smoothSolver:  Solving for nuTilda, Initial residual = 1.47244e-06, Final residual = 1.15014e-08, No Iterations 2
ExecutionTime = 9.04 s  ClockTime = 9 s

Time = 548

smoothSolver:  Solving for Ux, Initial residual = 7.70346e-07, Final residual = 1.01528e-08, No Iterations 2
smoothSolver:  Solving for Uy, Initial residual = 7.843e-07, Final residual = 1.74741e-08, No Iterations 2
GAMG:  Solving for p, Initial residual = 0.000136801, Final residual = 4.41581e-06, No Iterations 2
time step continuity errors : sum local = 8.8542e-07, global = -2.70652e-15, cumulative = 2.89594e-14
smoothSolver:  Solving for nuTilda, Initial residual = 9.23808e-07, Final residual = 1.16836e-08, No Iterations 2
ExecutionTime = 9.05 s  ClockTime = 9 s

Time = 549

smoothSolver:  Solving for Ux, Initial residual = 7.91395e-07, Final residual = 1.11724e-08, No Iterations 2
smoothSolver:  Solving for Uy, Initial residual = 7.81332e-07, Final residual = 1.7739e-08, No Iterations 2
GAMG:  Solving for p, Initial residual = 0.000135425, Final residual = 4.4039e-06, No Iterations 2
time step continuity errors : sum local = 8.83471e-07, global = 3.04431e-15, cumulative = 3.20037e-14
