/*---------------------------------------------------------------------------*\
| =========                 |                                                 |
| \\      /  F ield         | OpenFOAM: The Open Source CFD Toolbox           |
|  \\    /   O peration     | Version:  5.x                                   |
|   \\  /    A nd           | Web:      www.OpenFOAM.org                      |
|    \\/     M anipulation  |                                                 |
\*---------------------------------------------------------------------------*/
Build  : 5.x-68e8507efb72
Exec   : simpleFoam
Date   : May 01 2022
Time   : 13:31:48
Host   : "Desktop-PC"
PID    : 6601
I/O    : uncollated
Case   : /home/emilio/code/flow-separation-prediction/openfoam/run/Airfoil2D_full
nProcs : 1
sigFpe : Enabling floating point exception trapping (FOAM_SIGFPE).
fileModificationChecking : Monitoring run-time modified files using timeStampMaster (fileModificationSkew 10)
allowSystemOperations : Allowing user-supplied system call operations

// * * * * * * * * * * * * * * * * * * * * * * * * * * * * * * * * * * * * * //
Create time

Create mesh for time = 0


SIMPLE: convergence criteria
    field p	 tolerance 1e-05
    field U	 tolerance 1e-07
    field nuTilda	 tolerance 1e-07

Reading field p

Reading field U

Reading/calculating face flux field phi

Selecting incompressible transport model Newtonian
Selecting turbulence model type laminar
Selecting laminar stress model Stokes
No MRF models present

No finite volume options present


Starting time loop

forces forces:
    Not including porosity effects
forces forceCoeffs:
    Not including porosity effects
forceCoeffs forceCoeffs:
    Not including porosity effects
Time = 1

smoothSolver:  Solving for Ux, Initial residual = 1, Final residual = 0.0636558, No Iterations 2
smoothSolver:  Solving for Uy, Initial residual = 1, Final residual = 0.0696732, No Iterations 2
GAMG:  Solving for p, Initial residual = 1, Final residual = 0.0666371, No Iterations 14
time step continuity errors : sum local = 8.65454e-07, global = -1.17521e-19, cumulative = -1.17521e-19
ExecutionTime = 0.81 s  ClockTime = 1 s

forces forces write:
    sum of forces:
        pressure : (0.00115774 0.00484242 2.55525e-22)
        viscous  : (0.00127446 0.000277072 -6.04714e-23)
        porous   : (0 0 0)
    sum of moments:
        pressure : (-0.000726363 0.000173661 0.00025605)
        viscous  : (-4.15607e-05 0.000191169 -4.90886e-05)
        porous   : (0 0 0)

Time = 2

smoothSolver:  Solving for Ux, Initial residual = 0.316468, Final residual = 0.0106302, No Iterations 4
smoothSolver:  Solving for Uy, Initial residual = 0.420015, Final residual = 0.0244252, No Iterations 4
GAMG:  Solving for p, Initial residual = 0.882227, Final residual = 0.0652959, No Iterations 9
time step continuity errors : sum local = 1.87931e-06, global = 4.36248e-19, cumulative = 3.18727e-19
ExecutionTime = 1.01 s  ClockTime = 1 s

forces forces write:
    sum of forces:
        pressure : (0.000760161 0.00352864 1.91398e-22)
        viscous  : (0.00071081 -9.05041e-06 -4.63485e-23)
        porous   : (0 0 0)
    sum of moments:
        pressure : (-0.000529296 0.000114024 0.000167258)
        viscous  : (1.35756e-06 0.000106622 -3.5788e-05)
        porous   : (0 0 0)

Time = 3

smoothSolver:  Solving for Ux, Initial residual = 0.118536, Final residual = 0.00389034, No Iterations 4
smoothSolver:  Solving for Uy, Initial residual = 0.119041, Final residual = 0.00687865, No Iterations 4
GAMG:  Solving for p, Initial residual = 0.753785, Final residual = 0.0463728, No Iterations 14
time step continuity errors : sum local = 1.50362e-06, global = 3.04026e-19, cumulative = 6.22753e-19
ExecutionTime = 1.24 s  ClockTime = 1 s

forces forces write:
    sum of forces:
        pressure : (-0.000212926 -0.000517845 -3.0747e-23)
        viscous  : (0.000469397 -0.000108635 5.94703e-24)
        porous   : (0 0 0)
    sum of moments:
        pressure : (7.76768e-05 -3.19388e-05 -5.59112e-05)
        viscous  : (1.62953e-05 7.04095e-05 -2.94011e-05)
        porous   : (0 0 0)

Time = 4

smoothSolver:  Solving for Ux, Initial residual = 0.0369634, Final residual = 0.00145083, No Iterations 4
smoothSolver:  Solving for Uy, Initial residual = 0.025223, Final residual = 0.00135814, No Iterations 4
GAMG:  Solving for p, Initial residual = 0.88007, Final residual = 0.0488649, No Iterations 12
time step continuity errors : sum local = 1.59492e-06, global = -8.77325e-20, cumulative = 5.3502e-19
ExecutionTime = 1.47 s  ClockTime = 2 s

forces forces write:
    sum of forces:
        pressure : (-0.000642201 -0.00275458 -1.40411e-22)
        viscous  : (0.000366521 -7.44636e-05 3.31526e-23)
        porous   : (0 0 0)
    sum of moments:
        pressure : (0.000413187 -9.63302e-05 -0.000163343)
        viscous  : (1.11695e-05 5.49782e-05 -2.3004e-05)
        porous   : (0 0 0)

Time = 5

smoothSolver:  Solving for Ux, Initial residual = 0.0799598, Final residual = 0.00300312, No Iterations 4
smoothSolver:  Solving for Uy, Initial residual = 0.10923, Final residual = 0.00649405, No Iterations 4
GAMG:  Solving for p, Initial residual = 0.851722, Final residual = 0.0823266, No Iterations 8
time step continuity errors : sum local = 2.69691e-06, global = -3.81196e-19, cumulative = 1.53824e-19
ExecutionTime = 1.66 s  ClockTime = 2 s

forces forces write:
    sum of forces:
        pressure : (-0.000334879 -0.00176901 -1.05687e-22)
        viscous  : (0.000319987 9.91866e-07 2.55806e-23)
        porous   : (0 0 0)
    sum of moments:
        pressure : (0.000265352 -5.02318e-05 -9.18489e-05)
        viscous  : (-1.4878e-07 4.7998e-05 -1.67093e-05)
        porous   : (0 0 0)

Time = 6

smoothSolver:  Solving for Ux, Initial residual = 0.0758666, Final residual = 0.0022515, No Iterations 4
smoothSolver:  Solving for Uy, Initial residual = 0.118843, Final residual = 0.00640911, No Iterations 4
GAMG:  Solving for p, Initial residual = 0.770764, Final residual = 0.0675578, No Iterations 13
time step continuity errors : sum local = 2.04929e-06, global = 4.30643e-19, cumulative = 5.84467e-19
ExecutionTime = 1.89 s  ClockTime = 2 s

forces forces write:
    sum of forces:
        pressure : (0.00017267 0.000513012 1.44532e-23)
        viscous  : (0.000287627 4.00948e-05 -3.17016e-24)
        porous   : (0 0 0)
    sum of moments:
        pressure : (-7.69518e-05 2.59005e-05 4.17527e-05)
        viscous  : (-6.01422e-06 4.31441e-05 -1.25058e-05)
        porous   : (0 0 0)

Time = 7

smoothSolver:  Solving for Ux, Initial residual = 0.0388472, Final residual = 0.00171083, No Iterations 4
smoothSolver:  Solving for Uy, Initial residual = 0.0528495, Final residual = 0.00302096, No Iterations 4
GAMG:  Solving for p, Initial residual = 0.87001, Final residual = 0.0818004, No Iterations 10
time step continuity errors : sum local = 2.47725e-06, global = -1.7655e-19, cumulative = 4.07917e-19
ExecutionTime = 2.09 s  ClockTime = 2 s

forces forces write:
    sum of forces:
        pressure : (0.000337022 0.00159609 6.78759e-23)
        viscous  : (0.000254966 2.78509e-05 -1.68793e-23)
        porous   : (0 0 0)
    sum of moments:
        pressure : (-0.000239413 5.05533e-05 9.22649e-05)
        viscous  : (-4.17763e-06 3.82448e-05 -1.10426e-05)
        porous   : (0 0 0)

Time = 8

smoothSolver:  Solving for Ux, Initial residual = 0.0520354, Final residual = 0.00204741, No Iterations 4
smoothSolver:  Solving for Uy, Initial residual = 0.0868376, Final residual = 0.00520526, No Iterations 4
GAMG:  Solving for p, Initial residual = 0.861346, Final residual = 0.0848269, No Iterations 7
time step continuity errors : sum local = 2.34638e-06, global = 2.23688e-19, cumulative = 6.31605e-19
ExecutionTime = 2.27 s  ClockTime = 2 s

forces forces write:
    sum of forces:
        pressure : (0.000138353 0.000907937 4.42852e-23)
        viscous  : (0.000224723 -2.89241e-06 -1.15251e-23)
        porous   : (0 0 0)
    sum of moments:
        pressure : (-0.000136191 2.0753e-05 3.82524e-05)
        viscous  : (4.33861e-07 3.37084e-05 -1.11557e-05)
        porous   : (0 0 0)

Time = 9

smoothSolver:  Solving for Ux, Initial residual = 0.0395629, Final residual = 0.00120559, No Iterations 4
smoothSolver:  Solving for Uy, Initial residual = 0.0444342, Final residual = 0.00217849, No Iterations 4
GAMG:  Solving for p, Initial residual = 0.808565, Final residual = 0.0571056, No Iterations 10
time step continuity errors : sum local = 1.45984e-06, global = -1.30318e-20, cumulative = 6.18573e-19
ExecutionTime = 2.48 s  ClockTime = 3 s

forces forces write:
    sum of forces:
        pressure : (-0.00011172 -0.000361004 6.76532e-24)
        viscous  : (0.00020245 -1.77707e-05 -1.76113e-24)
        porous   : (0 0 0)
    sum of moments:
        pressure : (5.41506e-05 -1.67581e-05 -4.11373e-05)
        viscous  : (2.66561e-06 3.03676e-05 -1.12145e-05)
        porous   : (0 0 0)

Time = 10

smoothSolver:  Solving for Ux, Initial residual = 0.0212806, Final residual = 0.000832042, No Iterations 4
smoothSolver:  Solving for Uy, Initial residual = 0.0234566, Final residual = 0.00131625, No Iterations 4
GAMG:  Solving for p, Initial residual = 0.84563, Final residual = 0.0580043, No Iterations 11
time step continuity errors : sum local = 1.44825e-06, global = 1.36936e-19, cumulative = 7.55509e-19
ExecutionTime = 2.69 s  ClockTime = 3 s

forces forces write:
    sum of forces:
        pressure : (-0.000173758 -0.000870028 -1.98675e-23)
        viscous  : (0.000188703 -1.00309e-05 5.1514e-24)
        porous   : (0 0 0)
    sum of moments:
        pressure : (0.000130504 -2.60637e-05 -6.53654e-05)
        viscous  : (1.50464e-06 2.83054e-05 -1.04568e-05)
        porous   : (0 0 0)

Time = 11

smoothSolver:  Solving for Ux, Initial residual = 0.02738, Final residual = 0.000978386, No Iterations 4
smoothSolver:  Solving for Uy, Initial residual = 0.0441446, Final residual = 0.00260147, No Iterations 4
GAMG:  Solving for p, Initial residual = 0.8425, Final residual = 0.0473958, No Iterations 8
time step continuity errors : sum local = 1.08141e-06, global = 5.09055e-19, cumulative = 1.26456e-18
ExecutionTime = 2.89 s  ClockTime = 3 s

forces forces write:
    sum of forces:
        pressure : (-6.03395e-05 -0.000414721 -1.70276e-23)
        viscous  : (0.000179485 4.72046e-06 4.22502e-24)
        porous   : (0 0 0)
    sum of moments:
        pressure : (6.22081e-05 -9.05093e-06 -2.9616e-05)
        viscous  : (-7.0807e-07 2.69227e-05 -9.21683e-06)
        porous   : (0 0 0)

Time = 12

smoothSolver:  Solving for Ux, Initial residual = 0.0237612, Final residual = 0.000656759, No Iterations 4
smoothSolver:  Solving for Uy, Initial residual = 0.0311322, Final residual = 0.00143237, No Iterations 4
GAMG:  Solving for p, Initial residual = 0.795606, Final residual = 0.0729048, No Iterations 8
time step continuity errors : sum local = 1.48718e-06, global = -3.27958e-19, cumulative = 9.36607e-19
ExecutionTime = 3.08 s  ClockTime = 3 s

forces forces write:
    sum of forces:
        pressure : (6.58899e-05 0.000273047 2.89064e-24)
        viscous  : (0.000170469 1.07227e-05 -1.02652e-24)
        porous   : (0 0 0)
    sum of moments:
        pressure : (-4.09571e-05 9.88348e-06 1.59731e-05)
        viscous  : (-1.6084e-06 2.55704e-05 -8.21065e-06)
        porous   : (0 0 0)

Time = 13

smoothSolver:  Solving for Ux, Initial residual = 0.0169194, Final residual = 0.000761617, No Iterations 4
smoothSolver:  Solving for Uy, Initial residual = 0.0216745, Final residual = 0.00122052, No Iterations 4
GAMG:  Solving for p, Initial residual = 0.836439, Final residual = 0.0633346, No Iterations 10
time step continuity errors : sum local = 1.23487e-06, global = 4.26274e-19, cumulative = 1.36288e-18
ExecutionTime = 3.27 s  ClockTime = 3 s

forces forces write:
    sum of forces:
        pressure : (8.56563e-05 0.00049627 8.12688e-24)
        viscous  : (0.000160466 5.89585e-06 -2.54063e-24)
        porous   : (0 0 0)
    sum of moments:
        pressure : (-7.44405e-05 1.28485e-05 2.83818e-05)
        viscous  : (-8.84378e-07 2.40699e-05 -7.77089e-06)
        porous   : (0 0 0)

Time = 14

smoothSolver:  Solving for Ux, Initial residual = 0.0192782, Final residual = 0.000773701, No Iterations 4
smoothSolver:  Solving for Uy, Initial residual = 0.027213, Final residual = 0.00154116, No Iterations 4
GAMG:  Solving for p, Initial residual = 0.840251, Final residual = 0.0773332, No Iterations 8
time step continuity errors : sum local = 1.41304e-06, global = -5.33155e-19, cumulative = 8.29725e-19
ExecutionTime = 3.46 s  ClockTime = 4 s

forces forces write:
    sum of forces:
        pressure : (1.83057e-05 0.000209462 -1.06557e-24)
        viscous  : (0.000150956 -1.45803e-06 -1.82002e-25)
        porous   : (0 0 0)
    sum of moments:
        pressure : (-3.14193e-05 2.74586e-06 7.283e-06)
        viscous  : (2.18704e-07 2.26435e-05 -7.68736e-06)
        porous   : (0 0 0)

Time = 15

smoothSolver:  Solving for Ux, Initial residual = 0.0157283, Final residual = 0.000521931, No Iterations 4
smoothSolver:  Solving for Uy, Initial residual = 0.0143911, Final residual = 0.000550782, No Iterations 4
GAMG:  Solving for p, Initial residual = 0.789849, Final residual = 0.071543, No Iterations 9
time step continuity errors : sum local = 1.15105e-06, global = -5.01574e-19, cumulative = 3.28151e-19
ExecutionTime = 3.66 s  ClockTime = 4 s

forces forces write:
    sum of forces:
        pressure : (-4.6161e-05 -0.000153723 -1.15268e-23)
        viscous  : (0.000143416 -3.84603e-06 2.51479e-24)
        porous   : (0 0 0)
    sum of moments:
        pressure : (2.30584e-05 -6.92414e-06 -1.84469e-05)
        viscous  : (5.76904e-07 2.15124e-05 -7.56504e-06)
        porous   : (0 0 0)

Time = 16

smoothSolver:  Solving for Ux, Initial residual = 0.0111277, Final residual = 0.000464853, No Iterations 4
smoothSolver:  Solving for Uy, Initial residual = 0.0135843, Final residual = 0.000722189, No Iterations 4
GAMG:  Solving for p, Initial residual = 0.822894, Final residual = 0.0587378, No Iterations 9
time step continuity errors : sum local = 8.94595e-07, global = -9.89713e-19, cumulative = -6.61562e-19
ExecutionTime = 3.85 s  ClockTime = 4 s

forces forces write:
    sum of forces:
        pressure : (-5.13306e-05 -0.00023963 -1.34232e-23)
        viscous  : (0.000137817 -9.49414e-07 2.91517e-24)
        porous   : (0 0 0)
    sum of moments:
        pressure : (3.59445e-05 -7.6996e-06 -2.56718e-05)
        viscous  : (1.42412e-07 2.06726e-05 -7.21987e-06)
        porous   : (0 0 0)

Time = 17

smoothSolver:  Solving for Ux, Initial residual = 0.0117011, Final residual = 0.000435525, No Iterations 4
smoothSolver:  Solving for Uy, Initial residual = 0.016483, Final residual = 0.000916804, No Iterations 4
GAMG:  Solving for p, Initial residual = 0.825746, Final residual = 0.0562428, No Iterations 8
time step continuity errors : sum local = 8.04984e-07, global = 6.31577e-19, cumulative = -2.99851e-20
ExecutionTime = 4.03 s  ClockTime = 4 s

forces forces write:
    sum of forces:
        pressure : (-9.42863e-06 -6.21392e-05 4.55707e-25)
        viscous  : (0.000132974 2.68546e-06 -4.30514e-25)
        porous   : (0 0 0)
    sum of moments:
        pressure : (9.32087e-06 -1.41429e-06 -1.42823e-05)
        viscous  : (-4.02818e-07 1.99461e-05 -6.75839e-06)
        porous   : (0 0 0)

Time = 18

smoothSolver:  Solving for Ux, Initial residual = 0.0104176, Final residual = 0.000384709, No Iterations 4
smoothSolver:  Solving for Uy, Initial residual = 0.00979256, Final residual = 0.000364788, No Iterations 4
GAMG:  Solving for p, Initial residual = 0.78249, Final residual = 0.0627271, No Iterations 9
time step continuity errors : sum local = 7.8573e-07, global = -1.04316e-19, cumulative = -1.34301e-19
ExecutionTime = 4.22 s  ClockTime = 4 s

forces forces write:
    sum of forces:
        pressure : (2.38174e-05 0.000125146 5.86216e-24)
        viscous  : (0.000127923 3.47344e-06 -1.74315e-24)
        porous   : (0 0 0)
    sum of moments:
        pressure : (-1.87718e-05 3.57261e-06 -3.13507e-07)
        viscous  : (-5.21016e-07 1.91884e-05 -6.37874e-06)
        porous   : (0 0 0)

Time = 19

smoothSolver:  Solving for Ux, Initial residual = 0.00901805, Final residual = 0.000441114, No Iterations 4
smoothSolver:  Solving for Uy, Initial residual = 0.00955196, Final residual = 0.00050663, No Iterations 4
GAMG:  Solving for p, Initial residual = 0.815065, Final residual = 0.0651562, No Iterations 8
time step continuity errors : sum local = 7.62822e-07, global = 1.06438e-18, cumulative = 9.30076e-19
ExecutionTime = 4.42 s  ClockTime = 5 s

forces forces write:
    sum of forces:
        pressure : (2.35099e-05 0.000149594 6.31441e-24)
        viscous  : (0.000122709 1.67702e-06 -1.66823e-24)
        porous   : (0 0 0)
    sum of moments:
        pressure : (-2.24391e-05 3.52648e-06 3.90168e-06)
        viscous  : (-2.51553e-07 1.84064e-05 -6.16132e-06)
        porous   : (0 0 0)

Time = 20

smoothSolver:  Solving for Ux, Initial residual = 0.0090399, Final residual = 0.000403007, No Iterations 4
smoothSolver:  Solving for Uy, Initial residual = 0.00881661, Final residual = 0.000437544, No Iterations 4
GAMG:  Solving for p, Initial residual = 0.809645, Final residual = 0.0590656, No Iterations 8
time step continuity errors : sum local = 6.49785e-07, global = 5.87698e-20, cumulative = 9.88846e-19
ExecutionTime = 4.6 s  ClockTime = 5 s

forces forces write:
    sum of forces:
        pressure : (8.63506e-07 4.39204e-05 3.05155e-24)
        viscous  : (0.000117805 -1.87747e-07 -7.24132e-25)
        porous   : (0 0 0)
    sum of moments:
        pressure : (-6.58806e-06 1.29526e-07 -1.84353e-06)
        viscous  : (2.81621e-08 1.76708e-05 -6.03622e-06)
        porous   : (0 0 0)

Time = 21

smoothSolver:  Solving for Ux, Initial residual = 0.00773642, Final residual = 0.000325606, No Iterations 4
smoothSolver:  Solving for Uy, Initial residual = 0.00535637, Final residual = 0.000147122, No Iterations 4
GAMG:  Solving for p, Initial residual = 0.768035, Final residual = 0.0757802, No Iterations 7
time step continuity errors : sum local = 7.48429e-07, global = 6.72291e-20, cumulative = 1.05607e-18
ExecutionTime = 4.78 s  ClockTime = 5 s

forces forces write:
    sum of forces:
        pressure : (-1.63285e-05 -4.84963e-05 3.42613e-25)
        viscous  : (0.000113587 -4.20329e-07 -1.20131e-25)
        porous   : (0 0 0)
    sum of moments:
        pressure : (7.27445e-06 -2.44927e-06 -9.07994e-06)
        viscous  : (6.30493e-08 1.70381e-05 -5.89321e-06)
        porous   : (0 0 0)

Time = 22

smoothSolver:  Solving for Ux, Initial residual = 0.00643287, Final residual = 0.000301825, No Iterations 4
smoothSolver:  Solving for Uy, Initial residual = 0.00658101, Final residual = 0.00032513, No Iterations 4
GAMG:  Solving for p, Initial residual = 0.783884, Final residual = 0.0601158, No Iterations 7
time step continuity errors : sum local = 5.63819e-07, global = 4.69286e-19, cumulative = 1.52536e-18
ExecutionTime = 4.95 s  ClockTime = 5 s

forces forces write:
    sum of forces:
        pressure : (-1.48969e-05 -4.85402e-05 4.12432e-25)
        viscous  : (0.000109985 6.06084e-07 -3.47061e-25)
        porous   : (0 0 0)
    sum of moments:
        pressure : (7.28102e-06 -2.23454e-06 -1.16338e-05)
        viscous  : (-9.09126e-08 1.64978e-05 -5.69058e-06)
        porous   : (0 0 0)

Time = 23

smoothSolver:  Solving for Ux, Initial residual = 0.00623432, Final residual = 0.000282407, No Iterations 4
smoothSolver:  Solving for Uy, Initial residual = 0.00609116, Final residual = 0.000313331, No Iterations 4
GAMG:  Solving for p, Initial residual = 0.774639, Final residual = 0.0421573, No Iterations 7
time step continuity errors : sum local = 3.7223e-07, global = -1.09424e-19, cumulative = 1.41594e-18
ExecutionTime = 5.13 s  ClockTime = 5 s

forces forces write:
    sum of forces:
        pressure : (-3.41415e-06 1.36377e-05 -7.73421e-25)
        viscous  : (0.000106701 1.50001e-06 -2.63743e-25)
        porous   : (0 0 0)
    sum of moments:
        pressure : (-2.04565e-06 -5.12123e-07 -8.96888e-06)
        viscous  : (-2.25002e-07 1.60052e-05 -5.4668e-06)
        porous   : (0 0 0)

Time = 24

smoothSolver:  Solving for Ux, Initial residual = 0.00603637, Final residual = 0.000289113, No Iterations 4
smoothSolver:  Solving for Uy, Initial residual = 0.00449563, Final residual = 0.00016284, No Iterations 4
GAMG:  Solving for p, Initial residual = 0.75549, Final residual = 0.0461585, No Iterations 6
time step continuity errors : sum local = 3.63215e-07, global = -1.6574e-19, cumulative = 1.2502e-18
ExecutionTime = 5.3 s  ClockTime = 5 s

forces forces write:
    sum of forces:
        pressure : (4.97211e-06 5.89847e-05 5.66848e-25)
        viscous  : (0.000103519 1.46714e-06 -5.26238e-25)
        porous   : (0 0 0)
    sum of moments:
        pressure : (-8.8477e-06 7.45817e-07 -5.31294e-06)
        viscous  : (-2.20071e-07 1.55278e-05 -5.27743e-06)
        porous   : (0 0 0)

Time = 25

smoothSolver:  Solving for Ux, Initial residual = 0.00559418, Final residual = 0.000295851, No Iterations 4
smoothSolver:  Solving for Uy, Initial residual = 0.0046573, Final residual = 0.000213926, No Iterations 4
GAMG:  Solving for p, Initial residual = 0.776313, Final residual = 0.0760243, No Iterations 5
time step continuity errors : sum local = 5.54335e-07, global = -1.04773e-18, cumulative = 2.02472e-19
ExecutionTime = 5.46 s  ClockTime = 6 s

forces forces write:
    sum of forces:
        pressure : (2.97442e-06 5.14289e-05 3.35466e-25)
        viscous  : (0.000100413 8.33259e-07 -2.92427e-25)
        porous   : (0 0 0)
    sum of moments:
        pressure : (-7.71433e-06 4.46162e-07 -4.06252e-06)
        viscous  : (-1.24989e-07 1.5062e-05 -5.13801e-06)
        porous   : (0 0 0)

Time = 26

smoothSolver:  Solving for Ux, Initial residual = 0.00529878, Final residual = 0.000271208, No Iterations 4
smoothSolver:  Solving for Uy, Initial residual = 0.00351232, Final residual = 0.000136615, No Iterations 4
GAMG:  Solving for p, Initial residual = 0.768364, Final residual = 0.0506947, No Iterations 7
time step continuity errors : sum local = 3.51475e-07, global = 3.08294e-21, cumulative = 2.05555e-19
ExecutionTime = 5.64 s  ClockTime = 6 s

forces forces write:
    sum of forces:
        pressure : (-4.02451e-06 1.63714e-05 -7.11576e-25)
        viscous  : (9.7526e-05 3.64709e-07 7.89707e-26)
        porous   : (0 0 0)
    sum of moments:
        pressure : (-2.45571e-06 -6.03676e-07 -5.33419e-06)
        viscous  : (-5.47064e-08 1.46289e-05 -5.02238e-06)
        porous   : (0 0 0)

Time = 27

smoothSolver:  Solving for Ux, Initial residual = 0.00483442, Final residual = 0.000244153, No Iterations 4
smoothSolver:  Solving for Uy, Initial residual = 0.00305525, Final residual = 9.70178e-05, No Iterations 4
GAMG:  Solving for p, Initial residual = 0.732072, Final residual = 0.044794, No Iterations 6
time step continuity errors : sum local = 2.84475e-07, global = -9.23806e-19, cumulative = -7.18251e-19
ExecutionTime = 5.8 s  ClockTime = 6 s

forces forces write:
    sum of forces:
        pressure : (-7.8749e-06 -3.68195e-06 -1.32909e-24)
        viscous  : (9.49218e-05 4.19151e-07 1.85853e-25)
        porous   : (0 0 0)
    sum of moments:
        pressure : (5.52292e-07 -1.18124e-06 -7.09264e-06)
        viscous  : (-6.28726e-08 1.42383e-05 -4.89958e-06)
        porous   : (0 0 0)

Time = 28

smoothSolver:  Solving for Ux, Initial residual = 0.00444469, Final residual = 0.000232214, No Iterations 4
smoothSolver:  Solving for Uy, Initial residual = 0.00345582, Final residual = 0.000149863, No Iterations 4
GAMG:  Solving for p, Initial residual = 0.726448, Final residual = 0.0605629, No Iterations 5
time step continuity errors : sum local = 3.73145e-07, global = -3.08011e-19, cumulative = -1.02626e-18
ExecutionTime = 5.96 s  ClockTime = 6 s

forces forces write:
    sum of forces:
        pressure : (-6.13127e-06 5.20902e-06 -1.10394e-24)
        viscous  : (9.25379e-05 7.54869e-07 -6.55908e-27)
        porous   : (0 0 0)
    sum of moments:
        pressure : (-7.81354e-07 -9.1969e-07 -7.73051e-06)
        viscous  : (-1.1323e-07 1.38807e-05 -4.76323e-06)
        porous   : (0 0 0)

Time = 29

smoothSolver:  Solving for Ux, Initial residual = 0.00432552, Final residual = 0.000227478, No Iterations 4
smoothSolver:  Solving for Uy, Initial residual = 0.00299236, Final residual = 0.000129164, No Iterations 4
GAMG:  Solving for p, Initial residual = 0.710369, Final residual = 0.0647278, No Iterations 5
time step continuity errors : sum local = 3.83323e-07, global = -2.60039e-19, cumulative = -1.2863e-18
ExecutionTime = 6.12 s  ClockTime = 6 s

forces forces write:
    sum of forces:
        pressure : (-2.31896e-06 2.52243e-05 -5.36458e-25)
        viscous  : (9.02666e-05 9.54325e-07 -2.43997e-25)
        porous   : (0 0 0)
    sum of moments:
        pressure : (-3.78365e-06 -3.47844e-07 -7.22581e-06)
        viscous  : (-1.43149e-07 1.354e-05 -4.62852e-06)
        porous   : (0 0 0)

Time = 30

smoothSolver:  Solving for Ux, Initial residual = 0.00412525, Final residual = 0.000227883, No Iterations 4
smoothSolver:  Solving for Uy, Initial residual = 0.00282262, Final residual = 0.000107203, No Iterations 4
GAMG:  Solving for p, Initial residual = 0.69135, Final residual = 0.0445271, No Iterations 6
time step continuity errors : sum local = 2.43421e-07, global = -4.46326e-19, cumulative = -1.73263e-18
ExecutionTime = 6.29 s  ClockTime = 6 s

forces forces write:
    sum of forces:
        pressure : (-7.08027e-07 3.37038e-05 -2.71776e-25)
        viscous  : (8.80522e-05 8.64025e-07 -2.89492e-25)
        porous   : (0 0 0)
    sum of moments:
        pressure : (-5.05557e-06 -1.06204e-07 -6.49193e-06)
        viscous  : (-1.29604e-07 1.32078e-05 -4.51102e-06)
        porous   : (0 0 0)

Time = 31

smoothSolver:  Solving for Ux, Initial residual = 0.00397092, Final residual = 0.000223814, No Iterations 4
smoothSolver:  Solving for Uy, Initial residual = 0.00278445, Final residual = 0.000108442, No Iterations 4
GAMG:  Solving for p, Initial residual = 0.69712, Final residual = 0.0585757, No Iterations 5
time step continuity errors : sum local = 3.03193e-07, global = 5.5415e-19, cumulative = -1.17848e-18
ExecutionTime = 6.45 s  ClockTime = 7 s

forces forces write:
    sum of forces:
        pressure : (-2.02317e-06 2.65789e-05 -4.45685e-25)
        viscous  : (8.5913e-05 6.49629e-07 -1.53389e-25)
        porous   : (0 0 0)
    sum of moments:
        pressure : (-3.98684e-06 -3.03475e-07 -6.27416e-06)
        viscous  : (-9.74444e-08 1.2887e-05 -4.41138e-06)
        porous   : (0 0 0)

Time = 32

smoothSolver:  Solving for Ux, Initial residual = 0.00380446, Final residual = 0.000211361, No Iterations 4
smoothSolver:  Solving for Uy, Initial residual = 0.00239359, Final residual = 8.1265e-05, No Iterations 4
GAMG:  Solving for p, Initial residual = 0.682859, Final residual = 0.0498938, No Iterations 5
time step continuity errors : sum local = 2.44192e-07, global = 9.62689e-19, cumulative = -2.15788e-19
ExecutionTime = 6.6 s  ClockTime = 7 s

forces forces write:
    sum of forces:
        pressure : (-3.58314e-06 1.59964e-05 6.14778e-25)
        viscous  : (8.38758e-05 5.36272e-07 -2.98822e-25)
        porous   : (0 0 0)
    sum of moments:
        pressure : (-2.39946e-06 -5.37472e-07 -6.44773e-06)
        viscous  : (-8.04408e-08 1.25814e-05 -4.31931e-06)
        porous   : (0 0 0)

Time = 33

smoothSolver:  Solving for Ux, Initial residual = 0.00359491, Final residual = 0.000199359, No Iterations 4
smoothSolver:  Solving for Uy, Initial residual = 0.00233601, Final residual = 8.40266e-05, No Iterations 4
GAMG:  Solving for p, Initial residual = 0.653435, Final residual = 0.0270797, No Iterations 6
time step continuity errors : sum local = 1.25901e-07, global = 9.97363e-19, cumulative = 7.81575e-19
ExecutionTime = 6.78 s  ClockTime = 7 s

forces forces write:
    sum of forces:
        pressure : (-4.16805e-06 1.37512e-05 5.32161e-25)
        viscous  : (8.1953e-05 5.84702e-07 -2.81155e-25)
        porous   : (0 0 0)
    sum of moments:
        pressure : (-2.06268e-06 -6.25207e-07 -6.69662e-06)
        viscous  : (-8.77053e-08 1.22929e-05 -4.22546e-06)
        porous   : (0 0 0)

Time = 34

smoothSolver:  Solving for Ux, Initial residual = 0.00341602, Final residual = 0.000193729, No Iterations 4
smoothSolver:  Solving for Uy, Initial residual = 0.00224608, Final residual = 8.82952e-05, No Iterations 4
GAMG:  Solving for p, Initial residual = 0.642297, Final residual = 0.0626, No Iterations 5
time step continuity errors : sum local = 2.8024e-07, global = -4.76305e-20, cumulative = 7.33945e-19
ExecutionTime = 6.93 s  ClockTime = 7 s

forces forces write:
    sum of forces:
        pressure : (-3.33353e-06 1.95964e-05 6.58294e-25)
        viscous  : (8.01387e-05 6.86524e-07 -3.73062e-25)
        porous   : (0 0 0)
    sum of moments:
        pressure : (-2.93946e-06 -5.00029e-07 -6.80037e-06)
        viscous  : (-1.02979e-07 1.20208e-05 -4.12959e-06)
        porous   : (0 0 0)

Time = 35

smoothSolver:  Solving for Ux, Initial residual = 0.00339644, Final residual = 0.000191449, No Iterations 4
smoothSolver:  Solving for Uy, Initial residual = 0.00209921, Final residual = 7.87764e-05, No Iterations 4
GAMG:  Solving for p, Initial residual = 0.624302, Final residual = 0.0440271, No Iterations 5
time step continuity errors : sum local = 1.91723e-07, global = 7.51489e-20, cumulative = 8.09094e-19
ExecutionTime = 7.09 s  ClockTime = 7 s

forces forces write:
    sum of forces:
        pressure : (-2.44991e-06 2.55814e-05 7.94325e-25)
        viscous  : (7.83967e-05 7.21255e-07 -4.61841e-25)
        porous   : (0 0 0)
    sum of moments:
        pressure : (-3.83722e-06 -3.67486e-07 -6.82239e-06)
        viscous  : (-1.08188e-07 1.17595e-05 -4.03747e-06)
        porous   : (0 0 0)

Time = 36

smoothSolver:  Solving for Ux, Initial residual = 0.00326939, Final residual = 0.000188577, No Iterations 4
smoothSolver:  Solving for Uy, Initial residual = 0.00216542, Final residual = 7.98493e-05, No Iterations 4
GAMG:  Solving for p, Initial residual = 0.60487, Final residual = 0.0445438, No Iterations 5
time step continuity errors : sum local = 1.83642e-07, global = -1.04727e-19, cumulative = 7.04367e-19
ExecutionTime = 7.26 s  ClockTime = 7 s

forces forces write:
    sum of forces:
        pressure : (-2.49791e-06 2.57297e-05 7.93334e-25)
        viscous  : (7.67152e-05 6.69987e-07 -4.65914e-25)
        porous   : (0 0 0)
    sum of moments:
        pressure : (-3.85945e-06 -3.74686e-07 -6.86307e-06)
        viscous  : (-1.00498e-07 1.15073e-05 -3.95334e-06)
        porous   : (0 0 0)

Time = 37

smoothSolver:  Solving for Ux, Initial residual = 0.0031266, Final residual = 0.000182953, No Iterations 4
smoothSolver:  Solving for Uy, Initial residual = 0.0021699, Final residual = 7.96269e-05, No Iterations 4
GAMG:  Solving for p, Initial residual = 0.603228, Final residual = 0.0420325, No Iterations 6
time step continuity errors : sum local = 1.64815e-07, global = 6.05343e-19, cumulative = 1.30971e-18
ExecutionTime = 7.41 s  ClockTime = 8 s

forces forces write:
    sum of forces:
        pressure : (-3.4328e-06 2.18315e-05 -3.652e-26)
        viscous  : (7.5111e-05 5.99536e-07 -2.45146e-25)
        porous   : (0 0 0)
    sum of moments:
        pressure : (-3.27472e-06 -5.1492e-07 -6.87979e-06)
        viscous  : (-8.99304e-08 1.12666e-05 -3.87623e-06)
        porous   : (0 0 0)

Time = 38

smoothSolver:  Solving for Ux, Initial residual = 0.0030439, Final residual = 0.000175921, No Iterations 4
smoothSolver:  Solving for Uy, Initial residual = 0.00207689, Final residual = 7.57445e-05, No Iterations 4
GAMG:  Solving for p, Initial residual = 0.593363, Final residual = 0.0394402, No Iterations 5
time step continuity errors : sum local = 1.50695e-07, global = -1.60301e-19, cumulative = 1.14941e-18
ExecutionTime = 7.57 s  ClockTime = 8 s

forces forces write:
    sum of forces:
        pressure : (-3.93808e-06 1.90141e-05 -9.55011e-26)
        viscous  : (7.35943e-05 5.72552e-07 -1.96157e-25)
        porous   : (0 0 0)
    sum of moments:
        pressure : (-2.85212e-06 -5.90712e-07 -6.84536e-06)
        viscous  : (-8.58828e-08 1.10392e-05 -3.80243e-06)
        porous   : (0 0 0)

Time = 39

smoothSolver:  Solving for Ux, Initial residual = 0.00295054, Final residual = 0.000169531, No Iterations 4
smoothSolver:  Solving for Uy, Initial residual = 0.00203567, Final residual = 7.62846e-05, No Iterations 4
GAMG:  Solving for p, Initial residual = 0.567676, Final residual = 0.0344947, No Iterations 5
time step continuity errors : sum local = 1.25373e-07, global = 7.62509e-20, cumulative = 1.22566e-18
ExecutionTime = 7.73 s  ClockTime = 8 s

forces forces write:
    sum of forces:
        pressure : (-3.81241e-06 2.00984e-05 -5.99083e-26)
        viscous  : (7.21527e-05 5.91228e-07 -1.99316e-25)
        porous   : (0 0 0)
    sum of moments:
        pressure : (-3.01476e-06 -5.71861e-07 -6.74325e-06)
        viscous  : (-8.86842e-08 1.08229e-05 -3.72944e-06)
        porous   : (0 0 0)

Time = 40

smoothSolver:  Solving for Ux, Initial residual = 0.00288021, Final residual = 0.000165475, No Iterations 4
smoothSolver:  Solving for Uy, Initial residual = 0.00192851, Final residual = 7.25204e-05, No Iterations 4
GAMG:  Solving for p, Initial residual = 0.556646, Final residual = 0.043658, No Iterations 5
time step continuity errors : sum local = 1.54523e-07, global = -3.65136e-19, cumulative = 8.60525e-19
ExecutionTime = 7.89 s  ClockTime = 8 s

forces forces write:
    sum of forces:
        pressure : (-3.40031e-06 2.31124e-05 8.79896e-27)
        viscous  : (7.07758e-05 6.1553e-07 -2.36712e-25)
        porous   : (0 0 0)
    sum of moments:
        pressure : (-3.46686e-06 -5.10046e-07 -6.70998e-06)
        viscous  : (-9.23295e-08 1.06164e-05 -3.6576e-06)
        porous   : (0 0 0)

Time = 41

smoothSolver:  Solving for Ux, Initial residual = 0.00284213, Final residual = 0.00016305, No Iterations 4
smoothSolver:  Solving for Uy, Initial residual = 0.00182161, Final residual = 6.72722e-05, No Iterations 4
GAMG:  Solving for p, Initial residual = 0.53655, Final residual = 0.0527461, No Iterations 5
time step continuity errors : sum local = 1.81775e-07, global = -5.45221e-19, cumulative = 3.15304e-19
ExecutionTime = 8.05 s  ClockTime = 8 s

forces forces write:
    sum of forces:
        pressure : (-3.19481e-06 2.49737e-05 3.76886e-26)
        viscous  : (6.94506e-05 6.13458e-07 -2.66384e-25)
        porous   : (0 0 0)
    sum of moments:
        pressure : (-3.74605e-06 -4.79221e-07 -6.78613e-06)
        viscous  : (-9.20187e-08 1.04176e-05 -3.58872e-06)
        porous   : (0 0 0)

Time = 42

smoothSolver:  Solving for Ux, Initial residual = 0.00277003, Final residual = 0.000160145, No Iterations 4
smoothSolver:  Solving for Uy, Initial residual = 0.00184367, Final residual = 6.76025e-05, No Iterations 4
GAMG:  Solving for p, Initial residual = 0.518637, Final residual = 0.0265751, No Iterations 5
time step continuity errors : sum local = 8.91643e-08, global = -9.92536e-19, cumulative = -6.77232e-19
ExecutionTime = 8.21 s  ClockTime = 8 s

forces forces write:
    sum of forces:
        pressure : (-3.38325e-06 2.42027e-05 2.1473e-27)
        viscous  : (6.81709e-05 5.87896e-07 -2.62003e-25)
        porous   : (0 0 0)
    sum of moments:
        pressure : (-3.63041e-06 -5.07488e-07 -6.92368e-06)
        viscous  : (-8.81843e-08 1.02256e-05 -3.52378e-06)
        porous   : (0 0 0)

Time = 43

smoothSolver:  Solving for Ux, Initial residual = 0.00266451, Final residual = 0.000155744, No Iterations 4
smoothSolver:  Solving for Uy, Initial residual = 0.00187901, Final residual = 6.96333e-05, No Iterations 4
GAMG:  Solving for p, Initial residual = 0.509715, Final residual = 0.0393953, No Iterations 5
time step continuity errors : sum local = 1.27702e-07, global = 2.59675e-19, cumulative = -4.17557e-19
ExecutionTime = 8.36 s  ClockTime = 8 s

forces forces write:
    sum of forces:
        pressure : (-3.69555e-06 2.23452e-05 -4.84666e-26)
        viscous  : (6.69367e-05 5.63247e-07 -2.36641e-25)
        porous   : (0 0 0)
    sum of moments:
        pressure : (-3.35178e-06 -5.54332e-07 -7.00164e-06)
        viscous  : (-8.4487e-08 1.00405e-05 -3.46211e-06)
        porous   : (0 0 0)

Time = 44

smoothSolver:  Solving for Ux, Initial residual = 0.00259979, Final residual = 0.000150978, No Iterations 4
smoothSolver:  Solving for Uy, Initial residual = 0.00186603, Final residual = 7.06376e-05, No Iterations 4
GAMG:  Solving for p, Initial residual = 0.498159, Final residual = 0.0488351, No Iterations 5
time step continuity errors : sum local = 1.52721e-07, global = 5.07583e-20, cumulative = -3.66799e-19
ExecutionTime = 8.52 s  ClockTime = 9 s

forces forces write:
    sum of forces:
        pressure : (-3.81594e-06 2.15939e-05 -5.99452e-26)
        viscous  : (6.57486e-05 5.55657e-07 -2.19696e-25)
        porous   : (0 0 0)
    sum of moments:
        pressure : (-3.23908e-06 -5.72391e-07 -6.96486e-06)
        viscous  : (-8.33485e-08 9.86229e-06 -3.40246e-06)
        porous   : (0 0 0)

Time = 45

smoothSolver:  Solving for Ux, Initial residual = 0.00256645, Final residual = 0.000147048, No Iterations 4
smoothSolver:  Solving for Uy, Initial residual = 0.00184329, Final residual = 7.01726e-05, No Iterations 4
GAMG:  Solving for p, Initial residual = 0.483716, Final residual = 0.0345581, No Iterations 5
time step continuity errors : sum local = 1.05357e-07, global = -2.53135e-19, cumulative = -6.19934e-19
ExecutionTime = 8.68 s  ClockTime = 9 s

forces forces write:
    sum of forces:
        pressure : (-3.68031e-06 2.25807e-05 -2.65775e-26)
        viscous  : (6.46043e-05 5.60659e-07 -2.24956e-25)
        porous   : (0 0 0)
    sum of moments:
        pressure : (-3.38711e-06 -5.52047e-07 -6.87038e-06)
        viscous  : (-8.40988e-08 9.69064e-06 -3.34427e-06)
        porous   : (0 0 0)

Time = 46

smoothSolver:  Solving for Ux, Initial residual = 0.0025315, Final residual = 0.000143966, No Iterations 4
smoothSolver:  Solving for Uy, Initial residual = 0.00178966, Final residual = 6.72239e-05, No Iterations 4
GAMG:  Solving for p, Initial residual = 0.469721, Final residual = 0.0308817, No Iterations 5
time step continuity errors : sum local = 9.23471e-08, global = 4.33701e-19, cumulative = -1.86233e-19
ExecutionTime = 8.84 s  ClockTime = 9 s

forces forces write:
    sum of forces:
        pressure : (-3.49985e-06 2.40917e-05 1.13195e-26)
        viscous  : (6.3499e-05 5.63842e-07 -2.42227e-25)
        porous   : (0 0 0)
    sum of moments:
        pressure : (-3.61376e-06 -5.24977e-07 -6.82929e-06)
        viscous  : (-8.45763e-08 9.52485e-06 -3.28785e-06)
        porous   : (0 0 0)

Time = 47

smoothSolver:  Solving for Ux, Initial residual = 0.00248471, Final residual = 0.000141507, No Iterations 4
smoothSolver:  Solving for Uy, Initial residual = 0.00172499, Final residual = 6.42959e-05, No Iterations 4
GAMG:  Solving for p, Initial residual = 0.453933, Final residual = 0.0423088, No Iterations 3
time step continuity errors : sum local = 1.23975e-07, global = 3.3866e-19, cumulative = 1.52427e-19
ExecutionTime = 8.98 s  ClockTime = 9 s

forces forces write:
    sum of forces:
        pressure : (-3.46048e-06 2.45733e-05 1.74266e-26)
        viscous  : (6.2429e-05 5.57369e-07 -2.50417e-25)
        porous   : (0 0 0)
    sum of moments:
        pressure : (-3.686e-06 -5.19072e-07 -6.8581e-06)
        viscous  : (-8.36054e-08 9.36435e-06 -3.2337e-06)
        porous   : (0 0 0)

Time = 48

smoothSolver:  Solving for Ux, Initial residual = 0.00243457, Final residual = 0.000138685, No Iterations 4
smoothSolver:  Solving for Uy, Initial residual = 0.00169566, Final residual = 6.31809e-05, No Iterations 4
GAMG:  Solving for p, Initial residual = 0.439958, Final residual = 0.0427785, No Iterations 5
time step continuity errors : sum local = 1.22705e-07, global = -5.09407e-19, cumulative = -3.56981e-19
ExecutionTime = 9.13 s  ClockTime = 9 s

forces forces write:
    sum of forces:
        pressure : (-3.6071e-06 2.44028e-05 -3.55078e-27)
        viscous  : (6.1393e-05 5.45511e-07 -2.51447e-25)
        porous   : (0 0 0)
    sum of moments:
        pressure : (-3.66042e-06 -5.41065e-07 -6.95959e-06)
        viscous  : (-8.18267e-08 9.20895e-06 -3.18184e-06)
        porous   : (0 0 0)

Time = 49

smoothSolver:  Solving for Ux, Initial residual = 0.00237426, Final residual = 0.000135914, No Iterations 4
smoothSolver:  Solving for Uy, Initial residual = 0.00169888, Final residual = 6.46034e-05, No Iterations 4
GAMG:  Solving for p, Initial residual = 0.425213, Final residual = 0.0357066, No Iterations 3
time step continuity errors : sum local = 1.0003e-07, global = -3.40602e-19, cumulative = -6.97583e-19
ExecutionTime = 9.28 s  ClockTime = 9 s

forces forces write:
    sum of forces:
        pressure : (-3.72312e-06 2.39658e-05 -2.01297e-26)
        viscous  : (6.03906e-05 5.35213e-07 -2.45657e-25)
        porous   : (0 0 0)
    sum of moments:
        pressure : (-3.59488e-06 -5.58468e-07 -7.00057e-06)
        viscous  : (-8.02819e-08 9.05859e-06 -3.13194e-06)
        porous   : (0 0 0)

Time = 50

smoothSolver:  Solving for Ux, Initial residual = 0.00232658, Final residual = 0.000132907, No Iterations 4
smoothSolver:  Solving for Uy, Initial residual = 0.00169415, Final residual = 6.49154e-05, No Iterations 4
GAMG:  Solving for p, Initial residual = 0.41758, Final residual = 0.0396945, No Iterations 3
time step continuity errors : sum local = 1.08626e-07, global = 3.32116e-19, cumulative = -3.65466e-19
ExecutionTime = 9.42 s  ClockTime = 10 s

forces forces write:
    sum of forces:
        pressure : (-3.81131e-06 2.36761e-05 -2.93099e-26)
        viscous  : (5.94212e-05 5.30222e-07 -2.38041e-25)
        porous   : (0 0 0)
    sum of moments:
        pressure : (-3.55141e-06 -5.71696e-07 -7.00895e-06)
        viscous  : (-7.95333e-08 8.91318e-06 -3.08355e-06)
        porous   : (0 0 0)

Time = 51

smoothSolver:  Solving for Ux, Initial residual = 0.00228372, Final residual = 0.000129989, No Iterations 4
smoothSolver:  Solving for Uy, Initial residual = 0.00169193, Final residual = 6.49754e-05, No Iterations 4
GAMG:  Solving for p, Initial residual = 0.406629, Final residual = 0.0298801, No Iterations 5
time step continuity errors : sum local = 8.0106e-08, global = 7.57617e-20, cumulative = -2.89705e-19
ExecutionTime = 9.57 s  ClockTime = 10 s

forces forces write:
    sum of forces:
        pressure : (-3.82428e-06 2.38739e-05 -2.24041e-26)
        viscous  : (5.84835e-05 5.29249e-07 -2.32751e-25)
        porous   : (0 0 0)
    sum of moments:
        pressure : (-3.58108e-06 -5.73642e-07 -6.97454e-06)
        viscous  : (-7.93873e-08 8.77252e-06 -3.03633e-06)
        porous   : (0 0 0)

Time = 52

smoothSolver:  Solving for Ux, Initial residual = 0.00226655, Final residual = 0.000127176, No Iterations 4
smoothSolver:  Solving for Uy, Initial residual = 0.00168394, Final residual = 6.44187e-05, No Iterations 4
GAMG:  Solving for p, Initial residual = 0.39043, Final residual = 0.0317599, No Iterations 3
time step continuity errors : sum local = 8.33152e-08, global = 8.68032e-19, cumulative = 5.78327e-19
ExecutionTime = 9.72 s  ClockTime = 10 s

forces forces write:
    sum of forces:
        pressure : (-3.7809e-06 2.42497e-05 -1.01278e-26)
        viscous  : (5.75751e-05 5.28303e-07 -2.35048e-25)
        porous   : (0 0 0)
    sum of moments:
        pressure : (-3.63746e-06 -5.67135e-07 -6.9572e-06)
        viscous  : (-7.92454e-08 8.63627e-06 -2.99035e-06)
        porous   : (0 0 0)

Time = 53

smoothSolver:  Solving for Ux, Initial residual = 0.00223028, Final residual = 0.000124763, No Iterations 4
smoothSolver:  Solving for Uy, Initial residual = 0.00165851, Final residual = 6.33172e-05, No Iterations 4
GAMG:  Solving for p, Initial residual = 0.378978, Final residual = 0.0264671, No Iterations 5
time step continuity errors : sum local = 6.84479e-08, global = -4.1381e-19, cumulative = 1.64517e-19
ExecutionTime = 9.87 s  ClockTime = 10 s

forces forces write:
    sum of forces:
        pressure : (-3.72016e-06 2.49468e-05 9.60636e-27)
        viscous  : (5.66942e-05 5.24615e-07 -2.43856e-25)
        porous   : (0 0 0)
    sum of moments:
        pressure : (-3.74203e-06 -5.58024e-07 -6.95142e-06)
        viscous  : (-7.86922e-08 8.50413e-06 -2.9459e-06)
        porous   : (0 0 0)

Time = 54

smoothSolver:  Solving for Ux, Initial residual = 0.00220684, Final residual = 0.000122604, No Iterations 4
smoothSolver:  Solving for Uy, Initial residual = 0.0016206, Final residual = 6.16178e-05, No Iterations 4
GAMG:  Solving for p, Initial residual = 0.364516, Final residual = 0.0301488, No Iterations 3
time step continuity errors : sum local = 7.67112e-08, global = -4.42708e-19, cumulative = -2.78191e-19
ExecutionTime = 10.02 s  ClockTime = 10 s

forces forces write:
    sum of forces:
        pressure : (-3.73957e-06 2.50695e-05 9.33849e-27)
        viscous  : (5.58392e-05 5.1833e-07 -2.47331e-25)
        porous   : (0 0 0)
    sum of moments:
        pressure : (-3.76042e-06 -5.60936e-07 -6.97634e-06)
        viscous  : (-7.77496e-08 8.37588e-06 -2.9031e-06)
        porous   : (0 0 0)

Time = 55

smoothSolver:  Solving for Ux, Initial residual = 0.002169, Final residual = 0.000120325, No Iterations 4
smoothSolver:  Solving for Uy, Initial residual = 0.00159862, Final residual = 6.10272e-05, No Iterations 4
GAMG:  Solving for p, Initial residual = 0.355698, Final residual = 0.0218194, No Iterations 5
time step continuity errors : sum local = 5.47346e-08, global = -1.89444e-19, cumulative = -4.67635e-19
ExecutionTime = 10.17 s  ClockTime = 10 s

forces forces write:
    sum of forces:
        pressure : (-3.82708e-06 2.50963e-05 1.04956e-27)
        viscous  : (5.50094e-05 5.12433e-07 -2.49304e-25)
        porous   : (0 0 0)
    sum of moments:
        pressure : (-3.76444e-06 -5.74063e-07 -7.02075e-06)
        viscous  : (-7.6865e-08 8.25141e-06 -2.86172e-06)
        porous   : (0 0 0)

Time = 56

smoothSolver:  Solving for Ux, Initial residual = 0.00212741, Final residual = 0.00011829, No Iterations 4
smoothSolver:  Solving for Uy, Initial residual = 0.00158333, Final residual = 6.1047e-05, No Iterations 4
GAMG:  Solving for p, Initial residual = 0.343276, Final residual = 0.0274368, No Iterations 3
time step continuity errors : sum local = 6.75154e-08, global = -9.69566e-20, cumulative = -5.64592e-19
ExecutionTime = 10.32 s  ClockTime = 10 s

forces forces write:
    sum of forces:
        pressure : (-3.87955e-06 2.5008e-05 -6.26744e-27)
        viscous  : (5.42041e-05 5.08668e-07 -2.47483e-25)
        porous   : (0 0 0)
    sum of moments:
        pressure : (-3.7512e-06 -5.81932e-07 -7.03525e-06)
        viscous  : (-7.63001e-08 8.13062e-06 -2.82151e-06)
        porous   : (0 0 0)

Time = 57

smoothSolver:  Solving for Ux, Initial residual = 0.00209111, Final residual = 0.000116049, No Iterations 4
smoothSolver:  Solving for Uy, Initial residual = 0.0015764, Final residual = 6.08588e-05, No Iterations 4
GAMG:  Solving for p, Initial residual = 0.3334, Final residual = 0.0287872, No Iterations 3
time step continuity errors : sum local = 6.99059e-08, global = -4.95256e-20, cumulative = -6.14117e-19
ExecutionTime = 10.45 s  ClockTime = 11 s

forces forces write:
    sum of forces:
        pressure : (-3.91321e-06 2.50453e-05 -9.01351e-27)
        viscous  : (5.34222e-05 5.06351e-07 -2.44931e-25)
        porous   : (0 0 0)
    sum of moments:
        pressure : (-3.7568e-06 -5.86982e-07 -7.03571e-06)
        viscous  : (-7.59527e-08 8.01333e-06 -2.78234e-06)
        porous   : (0 0 0)

Time = 58

smoothSolver:  Solving for Ux, Initial residual = 0.00205669, Final residual = 0.000113928, No Iterations 4
smoothSolver:  Solving for Uy, Initial residual = 0.00156599, Final residual = 6.06128e-05, No Iterations 4
GAMG:  Solving for p, Initial residual = 0.322658, Final residual = 0.0201981, No Iterations 5
time step continuity errors : sum local = 4.84913e-08, global = -1.11592e-19, cumulative = -7.2571e-19
ExecutionTime = 10.61 s  ClockTime = 11 s

forces forces write:
    sum of forces:
        pressure : (-3.94141e-06 2.53059e-05 -5.84886e-27)
        viscous  : (5.26623e-05 5.04181e-07 -2.42243e-25)
        porous   : (0 0 0)
    sum of moments:
        pressure : (-3.79588e-06 -5.91212e-07 -7.02459e-06)
        viscous  : (-7.56272e-08 7.89934e-06 -2.74421e-06)
        porous   : (0 0 0)

Time = 59

smoothSolver:  Solving for Ux, Initial residual = 0.00203552, Final residual = 0.000111947, No Iterations 4
smoothSolver:  Solving for Uy, Initial residual = 0.0015562, Final residual = 6.05066e-05, No Iterations 4
GAMG:  Solving for p, Initial residual = 0.310465, Final residual = 0.0234144, No Iterations 3
time step continuity errors : sum local = 5.54563e-08, global = -8.95166e-19, cumulative = -1.62088e-18
ExecutionTime = 10.76 s  ClockTime = 11 s

forces forces write:
    sum of forces:
        pressure : (-3.93534e-06 2.54521e-05 -7.14165e-28)
        viscous  : (5.19231e-05 5.01169e-07 -2.42407e-25)
        porous   : (0 0 0)
    sum of moments:
        pressure : (-3.81782e-06 -5.90301e-07 -7.02526e-06)
        viscous  : (-7.51753e-08 7.78847e-06 -2.70719e-06)
        porous   : (0 0 0)

Time = 60

smoothSolver:  Solving for Ux, Initial residual = 0.00200544, Final residual = 0.000109985, No Iterations 4
smoothSolver:  Solving for Uy, Initial residual = 0.00154026, Final residual = 5.98916e-05, No Iterations 4
GAMG:  Solving for p, Initial residual = 0.301831, Final residual = 0.0220718, No Iterations 5
time step continuity errors : sum local = 5.16547e-08, global = 4.12434e-19, cumulative = -1.20844e-18
ExecutionTime = 10.91 s  ClockTime = 11 s

forces forces write:
    sum of forces:
        pressure : (-3.93343e-06 2.57107e-05 7.91725e-27)
        viscous  : (5.12038e-05 4.97625e-07 -2.45394e-25)
        porous   : (0 0 0)
    sum of moments:
        pressure : (-3.85661e-06 -5.90014e-07 -7.03668e-06)
        viscous  : (-7.46438e-08 7.68057e-06 -2.67126e-06)
        porous   : (0 0 0)

Time = 61

smoothSolver:  Solving for Ux, Initial residual = 0.00198662, Final residual = 0.000108078, No Iterations 4
smoothSolver:  Solving for Uy, Initial residual = 0.00152506, Final residual = 5.90227e-05, No Iterations 4
GAMG:  Solving for p, Initial residual = 0.289287, Final residual = 0.0218567, No Iterations 3
time step continuity errors : sum local = 5.04729e-08, global = 2.97028e-19, cumulative = -9.11414e-19
ExecutionTime = 11.06 s  ClockTime = 11 s

forces forces write:
    sum of forces:
        pressure : (-3.95003e-06 2.57585e-05 8.59213e-27)
        viscous  : (5.05036e-05 4.94185e-07 -2.47012e-25)
        porous   : (0 0 0)
    sum of moments:
        pressure : (-3.86378e-06 -5.92505e-07 -7.052e-06)
        viscous  : (-7.41278e-08 7.57554e-06 -2.63634e-06)
        porous   : (0 0 0)

Time = 62

smoothSolver:  Solving for Ux, Initial residual = 0.00195802, Final residual = 0.000106227, No Iterations 4
smoothSolver:  Solving for Uy, Initial residual = 0.00151099, Final residual = 5.85211e-05, No Iterations 4
GAMG:  Solving for p, Initial residual = 0.281549, Final residual = 0.0263048, No Iterations 3
time step continuity errors : sum local = 6.01074e-08, global = 9.39103e-19, cumulative = 2.76888e-20
ExecutionTime = 11.2 s  ClockTime = 11 s

forces forces write:
    sum of forces:
        pressure : (-3.98438e-06 2.58344e-05 6.84157e-27)
        viscous  : (4.98218e-05 4.91419e-07 -2.48727e-25)
        porous   : (0 0 0)
    sum of moments:
        pressure : (-3.87516e-06 -5.97658e-07 -7.06897e-06)
        viscous  : (-7.37129e-08 7.47327e-06 -2.60234e-06)
        porous   : (0 0 0)

Time = 63

smoothSolver:  Solving for Ux, Initial residual = 0.00193072, Final residual = 0.000104463, No Iterations 4
smoothSolver:  Solving for Uy, Initial residual = 0.00149514, Final residual = 5.81505e-05, No Iterations 4
GAMG:  Solving for p, Initial residual = 0.272172, Final residual = 0.0109896, No Iterations 5
time step continuity errors : sum local = 2.49394e-08, global = 1.24376e-19, cumulative = 1.52065e-19
ExecutionTime = 11.36 s  ClockTime = 11 s

forces forces write:
    sum of forces:
        pressure : (-4.02824e-06 2.60956e-05 6.51083e-27)
        viscous  : (4.91577e-05 4.89321e-07 -2.50681e-25)
        porous   : (0 0 0)
    sum of moments:
        pressure : (-3.91433e-06 -6.04236e-07 -7.08075e-06)
        viscous  : (-7.33982e-08 7.37365e-06 -2.5692e-06)
        porous   : (0 0 0)

Time = 64

smoothSolver:  Solving for Ux, Initial residual = 0.00190955, Final residual = 0.000102945, No Iterations 4
smoothSolver:  Solving for Uy, Initial residual = 0.00147554, Final residual = 5.76717e-05, No Iterations 4
GAMG:  Solving for p, Initial residual = 0.260294, Final residual = 0.0220653, No Iterations 3
time step continuity errors : sum local = 4.94244e-08, global = -2.14949e-19, cumulative = -6.28844e-20
ExecutionTime = 11.49 s  ClockTime = 12 s

forces forces write:
    sum of forces:
        pressure : (-4.04243e-06 2.61857e-05 5.58622e-27)
        viscous  : (4.85105e-05 4.87487e-07 -2.50103e-25)
        porous   : (0 0 0)
    sum of moments:
        pressure : (-3.92785e-06 -6.06365e-07 -7.08446e-06)
        viscous  : (-7.31231e-08 7.27657e-06 -2.53688e-06)
        porous   : (0 0 0)

Time = 65

smoothSolver:  Solving for Ux, Initial residual = 0.0018825, Final residual = 0.000101255, No Iterations 4
smoothSolver:  Solving for Uy, Initial residual = 0.0014643, Final residual = 5.72079e-05, No Iterations 4
GAMG:  Solving for p, Initial residual = 0.25283, Final residual = 0.0236237, No Iterations 3
time step continuity errors : sum local = 5.25226e-08, global = -1.59794e-19, cumulative = -2.22679e-19
ExecutionTime = 11.64 s  ClockTime = 12 s

forces forces write:
    sum of forces:
        pressure : (-4.05096e-06 2.62877e-05 6.37703e-27)
        viscous  : (4.78795e-05 4.85464e-07 -2.48834e-25)
        porous   : (0 0 0)
    sum of moments:
        pressure : (-3.94316e-06 -6.07644e-07 -7.08707e-06)
        viscous  : (-7.28196e-08 7.18192e-06 -2.50543e-06)
        porous   : (0 0 0)

Time = 66

smoothSolver:  Solving for Ux, Initial residual = 0.00185622, Final residual = 9.96352e-05, No Iterations 4
smoothSolver:  Solving for Uy, Initial residual = 0.00145462, Final residual = 5.67525e-05, No Iterations 4
GAMG:  Solving for p, Initial residual = 0.244334, Final residual = 0.01588, No Iterations 5
time step continuity errors : sum local = 3.50715e-08, global = -5.00379e-20, cumulative = -2.72717e-19
ExecutionTime = 11.79 s  ClockTime = 12 s

forces forces write:
    sum of forces:
        pressure : (-4.0748e-06 2.64747e-05 9.53815e-27)
        viscous  : (4.72639e-05 4.83188e-07 -2.47745e-25)
        porous   : (0 0 0)
    sum of moments:
        pressure : (-3.97121e-06 -6.1122e-07 -7.09136e-06)
        viscous  : (-7.24782e-08 7.08959e-06 -2.47484e-06)
        porous   : (0 0 0)

Time = 67

smoothSolver:  Solving for Ux, Initial residual = 0.00183586, Final residual = 9.81653e-05, No Iterations 4
smoothSolver:  Solving for Uy, Initial residual = 0.00144637, Final residual = 5.649e-05, No Iterations 4
GAMG:  Solving for p, Initial residual = 0.234211, Final residual = 0.0169717, No Iterations 3
time step continuity errors : sum local = 3.71517e-08, global = 3.06201e-19, cumulative = 3.34842e-20
ExecutionTime = 11.94 s  ClockTime = 12 s

forces forces write:
    sum of forces:
        pressure : (-4.08742e-06 2.65206e-05 1.11345e-26)
        viscous  : (4.66632e-05 4.80853e-07 -2.47975e-25)
        porous   : (0 0 0)
    sum of moments:
        pressure : (-3.97808e-06 -6.13113e-07 -7.09839e-06)
        viscous  : (-7.2128e-08 6.99949e-06 -2.44506e-06)
        porous   : (0 0 0)

Time = 68

smoothSolver:  Solving for Ux, Initial residual = 0.00181097, Final residual = 9.66111e-05, No Iterations 4
smoothSolver:  Solving for Uy, Initial residual = 0.00143357, Final residual = 5.60919e-05, No Iterations 4
GAMG:  Solving for p, Initial residual = 0.226873, Final residual = 0.022662, No Iterations 3
time step continuity errors : sum local = 4.91966e-08, global = -3.64448e-19, cumulative = -3.30964e-19
ExecutionTime = 12.08 s  ClockTime = 12 s

forces forces write:
    sum of forces:
        pressure : (-4.11027e-06 2.65915e-05 1.26944e-26)
        viscous  : (4.6077e-05 4.78826e-07 -2.49576e-25)
        porous   : (0 0 0)
    sum of moments:
        pressure : (-3.98872e-06 -6.1654e-07 -7.10924e-06)
        viscous  : (-7.18239e-08 6.91155e-06 -2.41601e-06)
        porous   : (0 0 0)

Time = 69

smoothSolver:  Solving for Ux, Initial residual = 0.00178931, Final residual = 9.51059e-05, No Iterations 4
smoothSolver:  Solving for Uy, Initial residual = 0.0014204, Final residual = 5.57227e-05, No Iterations 4
GAMG:  Solving for p, Initial residual = 0.217762, Final residual = 0.0136939, No Iterations 5
time step continuity errors : sum local = 2.94979e-08, global = 1.88987e-20, cumulative = -3.12066e-19
ExecutionTime = 12.24 s  ClockTime = 12 s

forces forces write:
    sum of forces:
        pressure : (-4.14173e-06 2.68218e-05 1.54931e-26)
        viscous  : (4.55046e-05 4.77213e-07 -2.53064e-25)
        porous   : (0 0 0)
    sum of moments:
        pressure : (-4.02327e-06 -6.2126e-07 -7.12106e-06)
        viscous  : (-7.1582e-08 6.82569e-06 -2.38764e-06)
        porous   : (0 0 0)

Time = 70

smoothSolver:  Solving for Ux, Initial residual = 0.0017783, Final residual = 9.36632e-05, No Iterations 4
smoothSolver:  Solving for Uy, Initial residual = 0.00140627, Final residual = 5.51375e-05, No Iterations 4
GAMG:  Solving for p, Initial residual = 0.208767, Final residual = 0.0164729, No Iterations 3
time step continuity errors : sum local = 3.51959e-08, global = -9.48421e-21, cumulative = -3.2155e-19
ExecutionTime = 12.38 s  ClockTime = 12 s

forces forces write:
    sum of forces:
        pressure : (-4.15607e-06 2.69158e-05 1.52952e-26)
        viscous  : (4.49456e-05 4.75896e-07 -2.53725e-25)
        porous   : (0 0 0)
    sum of moments:
        pressure : (-4.03737e-06 -6.23411e-07 -7.12786e-06)
        viscous  : (-7.13844e-08 6.74184e-06 -2.35991e-06)
        porous   : (0 0 0)

Time = 71

smoothSolver:  Solving for Ux, Initial residual = 0.00175601, Final residual = 9.22298e-05, No Iterations 4
smoothSolver:  Solving for Uy, Initial residual = 0.00139474, Final residual = 5.4686e-05, No Iterations 4
GAMG:  Solving for p, Initial residual = 0.202415, Final residual = 0.0199283, No Iterations 4
time step continuity errors : sum local = 4.23209e-08, global = -1.2167e-19, cumulative = -4.43219e-19
ExecutionTime = 12.53 s  ClockTime = 13 s

forces forces write:
    sum of forces:
        pressure : (-4.17359e-06 2.71078e-05 1.56112e-26)
        viscous  : (4.43995e-05 4.74596e-07 -2.53531e-25)
        porous   : (0 0 0)
    sum of moments:
        pressure : (-4.06617e-06 -6.26038e-07 -7.13671e-06)
        viscous  : (-7.11894e-08 6.65992e-06 -2.33285e-06)
        porous   : (0 0 0)

Time = 72

smoothSolver:  Solving for Ux, Initial residual = 0.00173527, Final residual = 9.09437e-05, No Iterations 4
smoothSolver:  Solving for Uy, Initial residual = 0.00138184, Final residual = 5.42088e-05, No Iterations 4
GAMG:  Solving for p, Initial residual = 0.194631, Final residual = 0.0125999, No Iterations 5
time step continuity errors : sum local = 2.66266e-08, global = -1.29596e-19, cumulative = -5.72816e-19
ExecutionTime = 12.69 s  ClockTime = 13 s

forces forces write:
    sum of forces:
        pressure : (-4.18753e-06 2.72449e-05 1.61082e-26)
        viscous  : (4.38657e-05 4.73194e-07 -2.52415e-25)
        porous   : (0 0 0)
    sum of moments:
        pressure : (-4.08673e-06 -6.28129e-07 -7.14339e-06)
        viscous  : (-7.09791e-08 6.57985e-06 -2.30646e-06)
        porous   : (0 0 0)

Time = 73

smoothSolver:  Solving for Ux, Initial residual = 0.00171421, Final residual = 8.97133e-05, No Iterations 4
smoothSolver:  Solving for Uy, Initial residual = 0.00136817, Final residual = 5.37248e-05, No Iterations 4
GAMG:  Solving for p, Initial residual = 0.187195, Final residual = 0.0134108, No Iterations 3
time step continuity errors : sum local = 2.82021e-08, global = 1.20794e-18, cumulative = 6.35123e-19
ExecutionTime = 12.83 s  ClockTime = 13 s

forces forces write:
    sum of forces:
        pressure : (-4.19718e-06 2.72668e-05 1.61906e-26)
        viscous  : (4.33438e-05 4.71777e-07 -2.51952e-25)
        porous   : (0 0 0)
    sum of moments:
        pressure : (-4.09003e-06 -6.29577e-07 -7.14883e-06)
        viscous  : (-7.07665e-08 6.50157e-06 -2.28071e-06)
        porous   : (0 0 0)

Time = 74

smoothSolver:  Solving for Ux, Initial residual = 0.00169188, Final residual = 8.83861e-05, No Iterations 4
smoothSolver:  Solving for Uy, Initial residual = 0.00135771, Final residual = 5.33346e-05, No Iterations 4
GAMG:  Solving for p, Initial residual = 0.181336, Final residual = 0.017852, No Iterations 3
time step continuity errors : sum local = 3.73829e-08, global = 4.19921e-19, cumulative = 1.05504e-18
ExecutionTime = 12.98 s  ClockTime = 13 s

forces forces write:
    sum of forces:
        pressure : (-4.21779e-06 2.73104e-05 1.71345e-26)
        viscous  : (4.28335e-05 4.70523e-07 -2.52313e-25)
        porous   : (0 0 0)
    sum of moments:
        pressure : (-4.09656e-06 -6.32669e-07 -7.15827e-06)
        viscous  : (-7.05785e-08 6.42502e-06 -2.25556e-06)
        porous   : (0 0 0)

Time = 75

smoothSolver:  Solving for Ux, Initial residual = 0.00167202, Final residual = 8.71257e-05, No Iterations 4
smoothSolver:  Solving for Uy, Initial residual = 0.00134782, Final residual = 5.30336e-05, No Iterations 4
GAMG:  Solving for p, Initial residual = 0.1748, Final residual = 0.0163779, No Iterations 4
time step continuity errors : sum local = 3.41519e-08, global = 4.98038e-20, cumulative = 1.10485e-18
ExecutionTime = 13.13 s  ClockTime = 13 s

forces forces write:
    sum of forces:
        pressure : (-4.25555e-06 2.74836e-05 1.99418e-26)
        viscous  : (4.23343e-05 4.69507e-07 -2.54335e-25)
        porous   : (0 0 0)
    sum of moments:
        pressure : (-4.12254e-06 -6.38333e-07 -7.17007e-06)
        viscous  : (-7.04261e-08 6.35014e-06 -2.23098e-06)
        porous   : (0 0 0)

Time = 76

smoothSolver:  Solving for Ux, Initial residual = 0.00165865, Final residual = 8.59676e-05, No Iterations 4
smoothSolver:  Solving for Uy, Initial residual = 0.00133746, Final residual = 5.27995e-05, No Iterations 4
GAMG:  Solving for p, Initial residual = 0.167831, Final residual = 0.0146809, No Iterations 4
time step continuity errors : sum local = 3.04952e-08, global = 3.46887e-19, cumulative = 1.45173e-18
ExecutionTime = 13.27 s  ClockTime = 13 s

forces forces write:
    sum of forces:
        pressure : (-4.27697e-06 2.76741e-05 2.27886e-26)
        viscous  : (4.18458e-05 4.68681e-07 -2.56275e-25)
        porous   : (0 0 0)
    sum of moments:
        pressure : (-4.15111e-06 -6.41545e-07 -7.17711e-06)
        viscous  : (-7.03022e-08 6.27687e-06 -2.20694e-06)
        porous   : (0 0 0)

Time = 77

smoothSolver:  Solving for Ux, Initial residual = 0.00164445, Final residual = 8.47827e-05, No Iterations 4
smoothSolver:  Solving for Uy, Initial residual = 0.00132525, Final residual = 5.23434e-05, No Iterations 4
GAMG:  Solving for p, Initial residual = 0.161936, Final residual = 0.0133803, No Iterations 3
time step continuity errors : sum local = 2.76306e-08, global = 5.00627e-20, cumulative = 1.5018e-18
ExecutionTime = 13.41 s  ClockTime = 14 s

forces forces write:
    sum of forces:
        pressure : (-4.2833e-06 2.77547e-05 2.32964e-26)
        viscous  : (4.13678e-05 4.6791e-07 -2.56745e-25)
        porous   : (0 0 0)
    sum of moments:
        pressure : (-4.16321e-06 -6.42495e-07 -7.18112e-06)
        viscous  : (-7.01865e-08 6.20516e-06 -2.18343e-06)
        porous   : (0 0 0)

Time = 78

smoothSolver:  Solving for Ux, Initial residual = 0.00162446, Final residual = 8.3565e-05, No Iterations 4
smoothSolver:  Solving for Uy, Initial residual = 0.00131373, Final residual = 5.18726e-05, No Iterations 4
GAMG:  Solving for p, Initial residual = 0.15497, Final residual = 0.0121049, No Iterations 4
time step continuity errors : sum local = 2.48437e-08, global = 4.83867e-19, cumulative = 1.98566e-18
ExecutionTime = 13.57 s  ClockTime = 14 s

forces forces write:
    sum of forces:
        pressure : (-4.29392e-06 2.79123e-05 2.39748e-26)
        viscous  : (4.08998e-05 4.67136e-07 -2.57034e-25)
        porous   : (0 0 0)
    sum of moments:
        pressure : (-4.18684e-06 -6.44087e-07 -7.18785e-06)
        viscous  : (-7.00705e-08 6.13497e-06 -2.16046e-06)
        porous   : (0 0 0)

Time = 79

smoothSolver:  Solving for Ux, Initial residual = 0.00160733, Final residual = 8.24455e-05, No Iterations 4
smoothSolver:  Solving for Uy, Initial residual = 0.00130093, Final residual = 5.12486e-05, No Iterations 4
GAMG:  Solving for p, Initial residual = 0.148912, Final residual = 0.0126382, No Iterations 4
time step continuity errors : sum local = 2.5852e-08, global = -7.24463e-19, cumulative = 1.2612e-18
ExecutionTime = 13.72 s  ClockTime = 14 s

forces forces write:
    sum of forces:
        pressure : (-4.31193e-06 2.80314e-05 2.40779e-26)
        viscous  : (4.04415e-05 4.66383e-07 -2.57016e-25)
        porous   : (0 0 0)
    sum of moments:
        pressure : (-4.20471e-06 -6.4679e-07 -7.19711e-06)
        viscous  : (-6.99575e-08 6.06622e-06 -2.13801e-06)
        porous   : (0 0 0)

Time = 80

smoothSolver:  Solving for Ux, Initial residual = 0.00159077, Final residual = 8.1383e-05, No Iterations 4
smoothSolver:  Solving for Uy, Initial residual = 0.00128921, Final residual = 5.07953e-05, No Iterations 4
GAMG:  Solving for p, Initial residual = 0.143916, Final residual = 0.0134819, No Iterations 4
time step continuity errors : sum local = 2.75386e-08, global = 3.95463e-19, cumulative = 1.65666e-18
ExecutionTime = 13.86 s  ClockTime = 14 s

forces forces write:
    sum of forces:
        pressure : (-4.33273e-06 2.81136e-05 2.42447e-26)
        viscous  : (3.99926e-05 4.65734e-07 -2.57028e-25)
        porous   : (0 0 0)
    sum of moments:
        pressure : (-4.21704e-06 -6.4991e-07 -7.20706e-06)
        viscous  : (-6.98602e-08 5.99888e-06 -2.11606e-06)
        porous   : (0 0 0)

Time = 81

smoothSolver:  Solving for Ux, Initial residual = 0.00157432, Final residual = 8.03353e-05, No Iterations 4
smoothSolver:  Solving for Uy, Initial residual = 0.00127873, Final residual = 5.04954e-05, No Iterations 4
GAMG:  Solving for p, Initial residual = 0.138669, Final residual = 0.0126506, No Iterations 4
time step continuity errors : sum local = 2.58184e-08, global = -5.9669e-19, cumulative = 1.05997e-18
ExecutionTime = 14.02 s  ClockTime = 14 s

forces forces write:
    sum of forces:
        pressure : (-4.35351e-06 2.81937e-05 2.50652e-26)
        viscous  : (3.95527e-05 4.65237e-07 -2.57377e-25)
        porous   : (0 0 0)
    sum of moments:
        pressure : (-4.22906e-06 -6.53026e-07 -7.21615e-06)
        viscous  : (-6.97855e-08 5.93291e-06 -2.09456e-06)
        porous   : (0 0 0)

Time = 82

smoothSolver:  Solving for Ux, Initial residual = 0.00155784, Final residual = 7.92927e-05, No Iterations 4
smoothSolver:  Solving for Uy, Initial residual = 0.00126914, Final residual = 5.02467e-05, No Iterations 4
GAMG:  Solving for p, Initial residual = 0.133444, Final residual = 0.0113793, No Iterations 4
time step continuity errors : sum local = 2.31957e-08, global = -8.8824e-19, cumulative = 1.71734e-19
ExecutionTime = 14.17 s  ClockTime = 14 s

forces forces write:
    sum of forces:
        pressure : (-4.37325e-06 2.83008e-05 2.66269e-26)
        viscous  : (3.91217e-05 4.64873e-07 -2.58198e-25)
        porous   : (0 0 0)
    sum of moments:
        pressure : (-4.24511e-06 -6.55988e-07 -7.22391e-06)
        viscous  : (-6.9731e-08 5.86826e-06 -2.07352e-06)
        porous   : (0 0 0)

Time = 83

smoothSolver:  Solving for Ux, Initial residual = 0.00154193, Final residual = 7.82644e-05, No Iterations 4
smoothSolver:  Solving for Uy, Initial residual = 0.00126026, Final residual = 4.9957e-05, No Iterations 4
GAMG:  Solving for p, Initial residual = 0.128257, Final residual = 0.0103978, No Iterations 4
time step continuity errors : sum local = 2.11493e-08, global = -7.73879e-20, cumulative = 9.4346e-20
ExecutionTime = 14.32 s  ClockTime = 14 s

forces forces write:
    sum of forces:
        pressure : (-4.39094e-06 2.84357e-05 2.85348e-26)
        viscous  : (3.86992e-05 4.64594e-07 -2.59314e-25)
        porous   : (0 0 0)
    sum of moments:
        pressure : (-4.26536e-06 -6.58642e-07 -7.23101e-06)
        viscous  : (-6.96891e-08 5.80488e-06 -2.05291e-06)
        porous   : (0 0 0)

Time = 84

smoothSolver:  Solving for Ux, Initial residual = 0.00152695, Final residual = 7.72564e-05, No Iterations 4
smoothSolver:  Solving for Uy, Initial residual = 0.0012512, Final residual = 4.95551e-05, No Iterations 4
GAMG:  Solving for p, Initial residual = 0.123348, Final residual = 0.00933684, No Iterations 4
time step continuity errors : sum local = 1.8948e-08, global = 5.10943e-19, cumulative = 6.05289e-19
ExecutionTime = 14.47 s  ClockTime = 15 s

forces forces write:
    sum of forces:
        pressure : (-4.40674e-06 2.85722e-05 3.00975e-26)
        viscous  : (3.8285e-05 4.64361e-07 -2.60342e-25)
        porous   : (0 0 0)
    sum of moments:
        pressure : (-4.28583e-06 -6.61011e-07 -7.23877e-06)
        viscous  : (-6.96541e-08 5.74275e-06 -2.03274e-06)
        porous   : (0 0 0)

Time = 85

smoothSolver:  Solving for Ux, Initial residual = 0.00151232, Final residual = 7.62735e-05, No Iterations 4
smoothSolver:  Solving for Uy, Initial residual = 0.00124122, Final residual = 4.90794e-05, No Iterations 4
GAMG:  Solving for p, Initial residual = 0.11854, Final residual = 0.00786549, No Iterations 4
time step continuity errors : sum local = 1.59292e-08, global = 1.02774e-18, cumulative = 1.63303e-18
ExecutionTime = 14.62 s  ClockTime = 15 s

forces forces write:
    sum of forces:
        pressure : (-4.4225e-06 2.86896e-05 3.09633e-26)
        viscous  : (3.78788e-05 4.64175e-07 -2.61045e-25)
        porous   : (0 0 0)
    sum of moments:
        pressure : (-4.30344e-06 -6.63374e-07 -7.2475e-06)
        viscous  : (-6.96263e-08 5.68182e-06 -2.013e-06)
        porous   : (0 0 0)

Time = 86

smoothSolver:  Solving for Ux, Initial residual = 0.00149743, Final residual = 7.53201e-05, No Iterations 4
smoothSolver:  Solving for Uy, Initial residual = 0.00123093, Final residual = 4.86392e-05, No Iterations 4
GAMG:  Solving for p, Initial residual = 0.113594, Final residual = 0.00825825, No Iterations 4
time step continuity errors : sum local = 1.66935e-08, global = 8.73426e-19, cumulative = 2.50646e-18
ExecutionTime = 14.77 s  ClockTime = 15 s

forces forces write:
    sum of forces:
        pressure : (-4.43963e-06 2.879e-05 3.13349e-26)
        viscous  : (3.74804e-05 4.64059e-07 -2.61451e-25)
        porous   : (0 0 0)
    sum of moments:
        pressure : (-4.3185e-06 -6.65945e-07 -7.25639e-06)
        viscous  : (-6.96089e-08 5.62206e-06 -1.99366e-06)
        porous   : (0 0 0)

Time = 87

smoothSolver:  Solving for Ux, Initial residual = 0.0014822, Final residual = 7.43926e-05, No Iterations 4
smoothSolver:  Solving for Uy, Initial residual = 0.00122122, Final residual = 4.82836e-05, No Iterations 4
GAMG:  Solving for p, Initial residual = 0.109078, Final residual = 0.00909411, No Iterations 4
time step continuity errors : sum local = 1.83649e-08, global = 1.70274e-19, cumulative = 2.67673e-18
ExecutionTime = 14.93 s  ClockTime = 15 s

forces forces write:
    sum of forces:
        pressure : (-4.45834e-06 2.88879e-05 3.16646e-26)
        viscous  : (3.70895e-05 4.64031e-07 -2.6174e-25)
        porous   : (0 0 0)
    sum of moments:
        pressure : (-4.33319e-06 -6.68752e-07 -7.26497e-06)
        viscous  : (-6.96046e-08 5.56342e-06 -1.97473e-06)
        porous   : (0 0 0)

Time = 88

smoothSolver:  Solving for Ux, Initial residual = 0.00146712, Final residual = 7.34857e-05, No Iterations 4
smoothSolver:  Solving for Uy, Initial residual = 0.0012128, Final residual = 4.799e-05, No Iterations 4
GAMG:  Solving for p, Initial residual = 0.105097, Final residual = 0.00881341, No Iterations 4
time step continuity errors : sum local = 1.77899e-08, global = 7.72706e-21, cumulative = 2.68446e-18
ExecutionTime = 15.08 s  ClockTime = 15 s

forces forces write:
    sum of forces:
        pressure : (-4.47747e-06 2.89931e-05 3.22994e-26)
        viscous  : (3.67059e-05 4.64088e-07 -2.621e-25)
        porous   : (0 0 0)
    sum of moments:
        pressure : (-4.34896e-06 -6.7162e-07 -7.27328e-06)
        viscous  : (-6.96132e-08 5.50589e-06 -1.95618e-06)
        porous   : (0 0 0)

Time = 89

smoothSolver:  Solving for Ux, Initial residual = 0.00145246, Final residual = 7.25959e-05, No Iterations 4
smoothSolver:  Solving for Uy, Initial residual = 0.00120516, Final residual = 4.77055e-05, No Iterations 4
GAMG:  Solving for p, Initial residual = 0.101048, Final residual = 0.00799308, No Iterations 4
time step continuity errors : sum local = 1.61338e-08, global = -1.74141e-19, cumulative = 2.51032e-18
ExecutionTime = 15.23 s  ClockTime = 15 s

forces forces write:
    sum of forces:
        pressure : (-4.49573e-06 2.91065e-05 3.33262e-26)
        viscous  : (3.63294e-05 4.64217e-07 -2.62645e-25)
        porous   : (0 0 0)
    sum of moments:
        pressure : (-4.36597e-06 -6.74359e-07 -7.28157e-06)
        viscous  : (-6.96326e-08 5.44942e-06 -1.93799e-06)
        porous   : (0 0 0)

Time = 90

smoothSolver:  Solving for Ux, Initial residual = 0.00143822, Final residual = 7.17209e-05, No Iterations 4
smoothSolver:  Solving for Uy, Initial residual = 0.00119753, Final residual = 4.73833e-05, No Iterations 4
GAMG:  Solving for p, Initial residual = 0.09702, Final residual = 0.00750602, No Iterations 4
time step continuity errors : sum local = 1.51466e-08, global = 1.36373e-19, cumulative = 2.64669e-18
ExecutionTime = 15.38 s  ClockTime = 15 s

forces forces write:
    sum of forces:
        pressure : (-4.51293e-06 2.92227e-05 3.45695e-26)
        viscous  : (3.59599e-05 4.64408e-07 -2.63372e-25)
        porous   : (0 0 0)
    sum of moments:
        pressure : (-4.3834e-06 -6.7694e-07 -7.29005e-06)
        viscous  : (-6.96613e-08 5.39398e-06 -1.92016e-06)
        porous   : (0 0 0)

Time = 91

smoothSolver:  Solving for Ux, Initial residual = 0.00142423, Final residual = 7.08608e-05, No Iterations 4
smoothSolver:  Solving for Uy, Initial residual = 0.00118955, Final residual = 4.7018e-05, No Iterations 4
GAMG:  Solving for p, Initial residual = 0.0932785, Final residual = 0.00682643, No Iterations 4
time step continuity errors : sum local = 1.37735e-08, global = 6.32952e-20, cumulative = 2.70999e-18
ExecutionTime = 15.52 s  ClockTime = 16 s

forces forces write:
    sum of forces:
        pressure : (-4.52984e-06 2.93349e-05 3.57533e-26)
        viscous  : (3.5597e-05 4.64662e-07 -2.64184e-25)
        porous   : (0 0 0)
    sum of moments:
        pressure : (-4.40023e-06 -6.79476e-07 -7.29881e-06)
        viscous  : (-6.96993e-08 5.33955e-06 -1.90269e-06)
        porous   : (0 0 0)

Time = 92

smoothSolver:  Solving for Ux, Initial residual = 0.00141027, Final residual = 7.00167e-05, No Iterations 4
smoothSolver:  Solving for Uy, Initial residual = 0.00118147, Final residual = 4.6648e-05, No Iterations 4
GAMG:  Solving for p, Initial residual = 0.0893804, Final residual = 0.00602045, No Iterations 4
time step continuity errors : sum local = 1.21529e-08, global = -6.56819e-19, cumulative = 2.05317e-18
ExecutionTime = 15.67 s  ClockTime = 16 s

forces forces write:
    sum of forces:
        pressure : (-4.54722e-06 2.94414e-05 3.67196e-26)
        viscous  : (3.52406e-05 4.64984e-07 -2.64963e-25)
        porous   : (0 0 0)
    sum of moments:
        pressure : (-4.41622e-06 -6.82082e-07 -7.30773e-06)
        viscous  : (-6.97476e-08 5.2861e-06 -1.88556e-06)
        porous   : (0 0 0)

Time = 93

smoothSolver:  Solving for Ux, Initial residual = 0.00139631, Final residual = 6.91907e-05, No Iterations 4
smoothSolver:  Solving for Uy, Initial residual = 0.00117362, Final residual = 4.63116e-05, No Iterations 4
GAMG:  Solving for p, Initial residual = 0.0856841, Final residual = 0.00341891, No Iterations 4
time step continuity errors : sum local = 6.87093e-09, global = 1.5313e-19, cumulative = 2.2063e-18
ExecutionTime = 15.82 s  ClockTime = 16 s

forces forces write:
    sum of forces:
        pressure : (-4.58243e-06 2.9532e-05 -2.10799e-26)
        viscous  : (3.48912e-05 4.65361e-07 -2.52656e-25)
        porous   : (0 0 0)
    sum of moments:
        pressure : (-4.42979e-06 -6.87365e-07 -7.31653e-06)
        viscous  : (-6.98041e-08 5.23368e-06 -1.86875e-06)
        porous   : (0 0 0)

Time = 94

smoothSolver:  Solving for Ux, Initial residual = 0.00138212, Final residual = 6.83727e-05, No Iterations 4
smoothSolver:  Solving for Uy, Initial residual = 0.00116615, Final residual = 4.60289e-05, No Iterations 4
GAMG:  Solving for p, Initial residual = 0.0819283, Final residual = 0.00664622, No Iterations 4
time step continuity errors : sum local = 1.33502e-08, global = -9.70213e-21, cumulative = 2.19659e-18
ExecutionTime = 15.97 s  ClockTime = 16 s

forces forces write:
    sum of forces:
        pressure : (-4.59921e-06 2.96551e-05 -2.01242e-26)
        viscous  : (3.45485e-05 4.65787e-07 -2.53359e-25)
        porous   : (0 0 0)
    sum of moments:
        pressure : (-4.44827e-06 -6.89882e-07 -7.32536e-06)
        viscous  : (-6.98681e-08 5.18228e-06 -1.85226e-06)
        porous   : (0 0 0)

Time = 95

smoothSolver:  Solving for Ux, Initial residual = 0.00136908, Final residual = 6.75984e-05, No Iterations 4
smoothSolver:  Solving for Uy, Initial residual = 0.00115842, Final residual = 4.57332e-05, No Iterations 4
GAMG:  Solving for p, Initial residual = 0.0786911, Final residual = 0.00622787, No Iterations 4
time step continuity errors : sum local = 1.24822e-08, global = -8.75264e-19, cumulative = 1.32133e-18
ExecutionTime = 16.11 s  ClockTime = 16 s

forces forces write:
    sum of forces:
        pressure : (-4.61415e-06 2.97716e-05 -1.92831e-26)
        viscous  : (3.42115e-05 4.6627e-07 -2.53936e-25)
        porous   : (0 0 0)
    sum of moments:
        pressure : (-4.46574e-06 -6.92122e-07 -7.33416e-06)
        viscous  : (-6.99405e-08 5.13173e-06 -1.83608e-06)
        porous   : (0 0 0)

Time = 96

smoothSolver:  Solving for Ux, Initial residual = 0.00135581, Final residual = 6.68293e-05, No Iterations 4
smoothSolver:  Solving for Uy, Initial residual = 0.00115092, Final residual = 4.54297e-05, No Iterations 4
GAMG:  Solving for p, Initial residual = 0.0757229, Final residual = 0.00529102, No Iterations 4
time step continuity errors : sum local = 1.05844e-08, global = -4.30037e-19, cumulative = 8.91292e-19
ExecutionTime = 16.26 s  ClockTime = 16 s

forces forces write:
    sum of forces:
        pressure : (-4.62872e-06 2.9874e-05 -1.86093e-26)
        viscous  : (3.38803e-05 4.66806e-07 -2.54409e-25)
        porous   : (0 0 0)
    sum of moments:
        pressure : (-4.48111e-06 -6.94308e-07 -7.34289e-06)
        viscous  : (-7.00209e-08 5.08205e-06 -1.82021e-06)
        porous   : (0 0 0)

Time = 97

smoothSolver:  Solving for Ux, Initial residual = 0.00134215, Final residual = 6.6062e-05, No Iterations 4
[...]
        porous   : (0 0 0)
    sum of moments:
        pressure : (-1.67843e-06 1.05198e-07 -2.50268e-06)
        viscous  : (-7.5624e-08 2.64761e-07 -1.69936e-07)
        porous   : (0 0 0)

Time = 3477

smoothSolver:  Solving for Ux, Initial residual = 0.00124797, Final residual = 3.10136e-05, No Iterations 2
smoothSolver:  Solving for Uy, Initial residual = 0.00207789, Final residual = 9.29298e-05, No Iterations 2
GAMG:  Solving for p, Initial residual = 0.368588, Final residual = 0.0261432, No Iterations 4
time step continuity errors : sum local = 1.66873e-07, global = -6.75821e-19, cumulative = -8.97753e-18
ExecutionTime = 507.12 s  ClockTime = 507 s

forces forces write:
    sum of forces:
        pressure : (6.97605e-07 1.11426e-05 2.52799e-25)
        viscous  : (1.76505e-06 5.04147e-07 -5.82551e-26)
        porous   : (0 0 0)
    sum of moments:
        pressure : (-1.6714e-06 1.04641e-07 -2.50728e-06)
        viscous  : (-7.56221e-08 2.64758e-07 -1.69943e-07)
        porous   : (0 0 0)

Time = 3478

smoothSolver:  Solving for Ux, Initial residual = 0.00124967, Final residual = 3.05275e-05, No Iterations 2
smoothSolver:  Solving for Uy, Initial residual = 0.00206783, Final residual = 9.01068e-05, No Iterations 2
GAMG:  Solving for p, Initial residual = 0.368384, Final residual = 0.0312844, No Iterations 3
time step continuity errors : sum local = 2.00667e-07, global = 2.55849e-19, cumulative = -8.72168e-18
ExecutionTime = 507.26 s  ClockTime = 507 s

forces forces write:
    sum of forces:
        pressure : (6.95971e-07 1.11093e-05 2.51798e-25)
        viscous  : (1.76504e-06 5.0414e-07 -5.78676e-26)
        porous   : (0 0 0)
    sum of moments:
        pressure : (-1.66639e-06 1.04396e-07 -2.509e-06)
        viscous  : (-7.56211e-08 2.64756e-07 -1.6995e-07)
        porous   : (0 0 0)

Time = 3479

smoothSolver:  Solving for Ux, Initial residual = 0.00125213, Final residual = 3.0129e-05, No Iterations 2
smoothSolver:  Solving for Uy, Initial residual = 0.0020558, Final residual = 8.8852e-05, No Iterations 2
GAMG:  Solving for p, Initial residual = 0.371248, Final residual = 0.031621, No Iterations 3
time step continuity errors : sum local = 2.04171e-07, global = 9.23626e-20, cumulative = -8.62932e-18
ExecutionTime = 507.39 s  ClockTime = 508 s

forces forces write:
    sum of forces:
        pressure : (6.94122e-07 1.1075e-05 2.508e-25)
        viscous  : (1.76503e-06 5.04143e-07 -5.74766e-26)
        porous   : (0 0 0)
    sum of moments:
        pressure : (-1.66125e-06 1.04118e-07 -2.51047e-06)
        viscous  : (-7.56215e-08 2.64754e-07 -1.69955e-07)
        porous   : (0 0 0)

Time = 3480

smoothSolver:  Solving for Ux, Initial residual = 0.00125408, Final residual = 2.97164e-05, No Iterations 2
smoothSolver:  Solving for Uy, Initial residual = 0.00204262, Final residual = 8.77607e-05, No Iterations 2
GAMG:  Solving for p, Initial residual = 0.377523, Final residual = 0.0338122, No Iterations 3
time step continuity errors : sum local = 2.20156e-07, global = 1.555e-19, cumulative = -8.47382e-18
ExecutionTime = 507.53 s  ClockTime = 508 s

forces forces write:
    sum of forces:
        pressure : (6.92215e-07 1.10482e-05 2.49998e-25)
        viscous  : (1.76502e-06 5.04154e-07 -5.71681e-26)
        porous   : (0 0 0)
    sum of moments:
        pressure : (-1.65723e-06 1.03832e-07 -2.51144e-06)
        viscous  : (-7.56231e-08 2.64753e-07 -1.69958e-07)
        porous   : (0 0 0)

Time = 3481

smoothSolver:  Solving for Ux, Initial residual = 0.00125459, Final residual = 2.9458e-05, No Iterations 2
smoothSolver:  Solving for Uy, Initial residual = 0.00202989, Final residual = 8.73275e-05, No Iterations 2
GAMG:  Solving for p, Initial residual = 0.383464, Final residual = 0.0355514, No Iterations 3
time step continuity errors : sum local = 2.34303e-07, global = -8.93435e-20, cumulative = -8.56316e-18
ExecutionTime = 507.66 s  ClockTime = 508 s

forces forces write:
    sum of forces:
        pressure : (6.90806e-07 1.10358e-05 2.49574e-25)
        viscous  : (1.76501e-06 5.04168e-07 -5.70053e-26)
        porous   : (0 0 0)
    sum of moments:
        pressure : (-1.65537e-06 1.03621e-07 -2.51156e-06)
        viscous  : (-7.56253e-08 2.64752e-07 -1.69958e-07)
        porous   : (0 0 0)

Time = 3482

smoothSolver:  Solving for Ux, Initial residual = 0.00125684, Final residual = 2.93816e-05, No Iterations 2
smoothSolver:  Solving for Uy, Initial residual = 0.00202302, Final residual = 8.80624e-05, No Iterations 2
GAMG:  Solving for p, Initial residual = 0.384469, Final residual = 0.0347573, No Iterations 3
time step continuity errors : sum local = 2.32441e-07, global = -3.39511e-19, cumulative = -8.90267e-18
ExecutionTime = 507.8 s  ClockTime = 508 s

forces forces write:
    sum of forces:
        pressure : (6.9031e-07 1.10378e-05 2.49547e-25)
        viscous  : (1.765e-06 5.04184e-07 -5.69828e-26)
        porous   : (0 0 0)
    sum of moments:
        pressure : (-1.65567e-06 1.03546e-07 -2.51088e-06)
        viscous  : (-7.56276e-08 2.6475e-07 -1.69957e-07)
        porous   : (0 0 0)

Time = 3483

smoothSolver:  Solving for Ux, Initial residual = 0.00125696, Final residual = 2.93651e-05, No Iterations 2
smoothSolver:  Solving for Uy, Initial residual = 0.00201978, Final residual = 8.96267e-05, No Iterations 2
GAMG:  Solving for p, Initial residual = 0.384674, Final residual = 0.0339427, No Iterations 3
time step continuity errors : sum local = 2.28821e-07, global = -2.53901e-19, cumulative = -9.15658e-18
ExecutionTime = 507.93 s  ClockTime = 508 s

forces forces write:
    sum of forces:
        pressure : (6.90875e-07 1.10503e-05 2.49835e-25)
        viscous  : (1.76499e-06 5.04197e-07 -5.70546e-26)
        porous   : (0 0 0)
    sum of moments:
        pressure : (-1.65754e-06 1.03631e-07 -2.50954e-06)
        viscous  : (-7.56296e-08 2.64749e-07 -1.69956e-07)
        porous   : (0 0 0)

Time = 3484

smoothSolver:  Solving for Ux, Initial residual = 0.0012568, Final residual = 2.94776e-05, No Iterations 2
smoothSolver:  Solving for Uy, Initial residual = 0.00202007, Final residual = 9.15728e-05, No Iterations 2
GAMG:  Solving for p, Initial residual = 0.383311, Final residual = 0.0334437, No Iterations 3
time step continuity errors : sum local = 2.27581e-07, global = 1.0304e-19, cumulative = -9.05354e-18
ExecutionTime = 508.07 s  ClockTime = 508 s

forces forces write:
    sum of forces:
        pressure : (6.92628e-07 1.1069e-05 2.5036e-25)
        viscous  : (1.76498e-06 5.04208e-07 -5.71732e-26)
        porous   : (0 0 0)
    sum of moments:
        pressure : (-1.66035e-06 1.03894e-07 -2.50766e-06)
        viscous  : (-7.56311e-08 2.64747e-07 -1.69956e-07)
        porous   : (0 0 0)

Time = 3485

smoothSolver:  Solving for Ux, Initial residual = 0.00125739, Final residual = 2.96251e-05, No Iterations 2
smoothSolver:  Solving for Uy, Initial residual = 0.00202341, Final residual = 9.35279e-05, No Iterations 2
GAMG:  Solving for p, Initial residual = 0.383814, Final residual = 0.0340159, No Iterations 3
time step continuity errors : sum local = 2.33205e-07, global = 2.04929e-19, cumulative = -8.84861e-18
ExecutionTime = 508.21 s  ClockTime = 508 s

forces forces write:
    sum of forces:
        pressure : (6.95628e-07 1.10922e-05 2.51092e-25)
        viscous  : (1.76497e-06 5.04214e-07 -5.73174e-26)
        porous   : (0 0 0)
    sum of moments:
        pressure : (-1.66384e-06 1.04344e-07 -2.50515e-06)
        viscous  : (-7.56321e-08 2.64746e-07 -1.69958e-07)
        porous   : (0 0 0)

Time = 3486

smoothSolver:  Solving for Ux, Initial residual = 0.00125725, Final residual = 2.98538e-05, No Iterations 2
smoothSolver:  Solving for Uy, Initial residual = 0.00203019, Final residual = 9.54416e-05, No Iterations 2
GAMG:  Solving for p, Initial residual = 0.3816, Final residual = 0.0342125, No Iterations 3
time step continuity errors : sum local = 2.37359e-07, global = -6.8997e-19, cumulative = -9.53858e-18
ExecutionTime = 508.35 s  ClockTime = 508 s

forces forces write:
    sum of forces:
        pressure : (6.99824e-07 1.11202e-05 2.52055e-25)
        viscous  : (1.76496e-06 5.04218e-07 -5.74994e-26)
        porous   : (0 0 0)
    sum of moments:
        pressure : (-1.66803e-06 1.04974e-07 -2.50187e-06)
        viscous  : (-7.56327e-08 2.64744e-07 -1.69963e-07)
        porous   : (0 0 0)

Time = 3487

smoothSolver:  Solving for Ux, Initial residual = 0.00125747, Final residual = 3.01607e-05, No Iterations 2
smoothSolver:  Solving for Uy, Initial residual = 0.00203897, Final residual = 9.72265e-05, No Iterations 2
GAMG:  Solving for p, Initial residual = 0.381156, Final residual = 0.0331211, No Iterations 3
time step continuity errors : sum local = 2.32044e-07, global = 2.58775e-19, cumulative = -9.2798e-18
ExecutionTime = 508.48 s  ClockTime = 509 s

forces forces write:
    sum of forces:
        pressure : (7.04717e-07 1.11531e-05 2.53231e-25)
        viscous  : (1.76495e-06 5.04221e-07 -5.77427e-26)
        porous   : (0 0 0)
    sum of moments:
        pressure : (-1.67297e-06 1.05708e-07 -2.49797e-06)
        viscous  : (-7.56332e-08 2.64743e-07 -1.69969e-07)
        porous   : (0 0 0)

Time = 3488

smoothSolver:  Solving for Ux, Initial residual = 0.00125714, Final residual = 3.04962e-05, No Iterations 2
smoothSolver:  Solving for Uy, Initial residual = 0.00204782, Final residual = 9.87765e-05, No Iterations 2
GAMG:  Solving for p, Initial residual = 0.380874, Final residual = 0.0323691, No Iterations 3
time step continuity errors : sum local = 2.28995e-07, global = 5.568e-19, cumulative = -8.723e-18
ExecutionTime = 508.62 s  ClockTime = 509 s

forces forces write:
    sum of forces:
        pressure : (7.09692e-07 1.1191e-05 2.54567e-25)
        viscous  : (1.76494e-06 5.04225e-07 -5.8062e-26)
        porous   : (0 0 0)
    sum of moments:
        pressure : (-1.67865e-06 1.06454e-07 -2.4938e-06)
        viscous  : (-7.56338e-08 2.64741e-07 -1.69976e-07)
        porous   : (0 0 0)

Time = 3489

smoothSolver:  Solving for Ux, Initial residual = 0.00125901, Final residual = 3.09121e-05, No Iterations 2
smoothSolver:  Solving for Uy, Initial residual = 0.00205821, Final residual = 0.000100286, No Iterations 2
GAMG:  Solving for p, Initial residual = 0.384907, Final residual = 0.0346866, No Iterations 3
time step continuity errors : sum local = 2.4731e-07, global = -1.44935e-19, cumulative = -8.86794e-18
ExecutionTime = 508.75 s  ClockTime = 509 s

forces forces write:
    sum of forces:
        pressure : (7.14224e-07 1.12322e-05 2.55979e-25)
        viscous  : (1.76493e-06 5.04232e-07 -5.84416e-26)
        porous   : (0 0 0)
    sum of moments:
        pressure : (-1.68482e-06 1.07134e-07 -2.48982e-06)
        viscous  : (-7.56347e-08 2.64739e-07 -1.69984e-07)
        porous   : (0 0 0)

Time = 3490

smoothSolver:  Solving for Ux, Initial residual = 0.00126108, Final residual = 3.13613e-05, No Iterations 2
smoothSolver:  Solving for Uy, Initial residual = 0.00206645, Final residual = 0.000101497, No Iterations 2
GAMG:  Solving for p, Initial residual = 0.384459, Final residual = 0.0312871, No Iterations 4
time step continuity errors : sum local = 2.25695e-07, global = -1.73915e-19, cumulative = -9.04185e-18
ExecutionTime = 508.9 s  ClockTime = 509 s

forces forces write:
    sum of forces:
        pressure : (7.23669e-07 1.13187e-05 2.59029e-25)
        viscous  : (1.76491e-06 5.04239e-07 -5.92212e-26)
        porous   : (0 0 0)
    sum of moments:
        pressure : (-1.6978e-06 1.0855e-07 -2.48142e-06)
        viscous  : (-7.56359e-08 2.64737e-07 -1.69991e-07)
        porous   : (0 0 0)

Time = 3491

smoothSolver:  Solving for Ux, Initial residual = 0.00126492, Final residual = 3.20688e-05, No Iterations 2
smoothSolver:  Solving for Uy, Initial residual = 0.00207123, Final residual = 0.000102054, No Iterations 2
GAMG:  Solving for p, Initial residual = 0.387531, Final residual = 0.0336908, No Iterations 3
time step continuity errors : sum local = 2.45404e-07, global = -9.22502e-20, cumulative = -9.1341e-18
ExecutionTime = 509.04 s  ClockTime = 509 s

forces forces write:
    sum of forces:
        pressure : (7.24744e-07 1.13413e-05 2.59666e-25)
        viscous  : (1.76489e-06 5.04247e-07 -5.9496e-26)
        porous   : (0 0 0)
    sum of moments:
        pressure : (-1.70119e-06 1.08712e-07 -2.48098e-06)
        viscous  : (-7.56371e-08 2.64734e-07 -1.69997e-07)
        porous   : (0 0 0)

Time = 3492

smoothSolver:  Solving for Ux, Initial residual = 0.00126759, Final residual = 3.26146e-05, No Iterations 2
smoothSolver:  Solving for Uy, Initial residual = 0.00207327, Final residual = 0.000103471, No Iterations 2
GAMG:  Solving for p, Initial residual = 0.392431, Final residual = 0.0392273, No Iterations 3
time step continuity errors : sum local = 2.89439e-07, global = 7.92326e-19, cumulative = -8.34178e-18
ExecutionTime = 509.17 s  ClockTime = 509 s

forces forces write:
    sum of forces:
        pressure : (7.24552e-07 1.13526e-05 2.59948e-25)
        viscous  : (1.76487e-06 5.0425e-07 -5.96618e-26)
        porous   : (0 0 0)
    sum of moments:
        pressure : (-1.7029e-06 1.08683e-07 -2.48209e-06)
        viscous  : (-7.56375e-08 2.64731e-07 -1.70004e-07)
        porous   : (0 0 0)

Time = 3493

smoothSolver:  Solving for Ux, Initial residual = 0.00127081, Final residual = 3.31457e-05, No Iterations 2
smoothSolver:  Solving for Uy, Initial residual = 0.00207301, Final residual = 0.000104767, No Iterations 2
GAMG:  Solving for p, Initial residual = 0.399745, Final residual = 0.0353314, No Iterations 4
time step continuity errors : sum local = 2.64736e-07, global = 3.22797e-19, cumulative = -8.01898e-18
ExecutionTime = 509.31 s  ClockTime = 509 s

forces forces write:
    sum of forces:
        pressure : (7.24648e-07 1.13617e-05 2.60452e-25)
        viscous  : (1.76485e-06 5.0425e-07 -5.9768e-26)
        porous   : (0 0 0)
    sum of moments:
        pressure : (-1.70426e-06 1.08697e-07 -2.48342e-06)
        viscous  : (-7.56376e-08 2.64727e-07 -1.7001e-07)
        porous   : (0 0 0)

Time = 3494

smoothSolver:  Solving for Ux, Initial residual = 0.00127957, Final residual = 3.42643e-05, No Iterations 2
smoothSolver:  Solving for Uy, Initial residual = 0.00207885, Final residual = 0.000106487, No Iterations 2
GAMG:  Solving for p, Initial residual = 0.404368, Final residual = 0.0370166, No Iterations 3
time step continuity errors : sum local = 2.82391e-07, global = -8.77076e-19, cumulative = -8.89605e-18
ExecutionTime = 509.45 s  ClockTime = 510 s

forces forces write:
    sum of forces:
        pressure : (7.24021e-07 1.13582e-05 2.60433e-25)
        viscous  : (1.76482e-06 5.04253e-07 -5.97379e-26)
        porous   : (0 0 0)
    sum of moments:
        pressure : (-1.70374e-06 1.08603e-07 -2.48473e-06)
        viscous  : (-7.5638e-08 2.64723e-07 -1.70015e-07)
        porous   : (0 0 0)

Time = 3495

smoothSolver:  Solving for Ux, Initial residual = 0.00128742, Final residual = 3.51622e-05, No Iterations 2
smoothSolver:  Solving for Uy, Initial residual = 0.00209394, Final residual = 0.000110284, No Iterations 2
GAMG:  Solving for p, Initial residual = 0.408095, Final residual = 0.0342571, No Iterations 3
time step continuity errors : sum local = 2.64297e-07, global = -4.25084e-19, cumulative = -9.32114e-18
ExecutionTime = 509.59 s  ClockTime = 510 s

forces forces write:
    sum of forces:
        pressure : (7.23703e-07 1.13582e-05 2.60548e-25)
        viscous  : (1.76479e-06 5.04262e-07 -5.97514e-26)
        porous   : (0 0 0)
    sum of moments:
        pressure : (-1.70373e-06 1.08555e-07 -2.48555e-06)
        viscous  : (-7.56393e-08 2.64719e-07 -1.70019e-07)
        porous   : (0 0 0)

Time = 3496

smoothSolver:  Solving for Ux, Initial residual = 0.00129318, Final residual = 3.63862e-05, No Iterations 2
smoothSolver:  Solving for Uy, Initial residual = 0.00211373, Final residual = 0.00011468, No Iterations 2
GAMG:  Solving for p, Initial residual = 0.414826, Final residual = 0.0333697, No Iterations 3
time step continuity errors : sum local = 2.60696e-07, global = -7.76606e-19, cumulative = -1.00977e-17
ExecutionTime = 509.72 s  ClockTime = 510 s

forces forces write:
    sum of forces:
        pressure : (7.2367e-07 1.1367e-05 2.60897e-25)
        viscous  : (1.76477e-06 5.04277e-07 -5.98806e-26)
        porous   : (0 0 0)
    sum of moments:
        pressure : (-1.70504e-06 1.0855e-07 -2.48592e-06)
        viscous  : (-7.56416e-08 2.64715e-07 -1.70023e-07)
        porous   : (0 0 0)

Time = 3497

smoothSolver:  Solving for Ux, Initial residual = 0.00129935, Final residual = 3.72594e-05, No Iterations 2
smoothSolver:  Solving for Uy, Initial residual = 0.00213426, Final residual = 0.000118726, No Iterations 2
GAMG:  Solving for p, Initial residual = 0.422706, Final residual = 0.0325395, No Iterations 3
time step continuity errors : sum local = 2.55429e-07, global = -4.38931e-19, cumulative = -1.05367e-17
ExecutionTime = 509.86 s  ClockTime = 510 s

forces forces write:
    sum of forces:
        pressure : (7.22801e-07 1.13791e-05 2.61222e-25)
        viscous  : (1.76474e-06 5.04297e-07 -6.00963e-26)
        porous   : (0 0 0)
    sum of moments:
        pressure : (-1.70687e-06 1.0842e-07 -2.48675e-06)
        viscous  : (-7.56445e-08 2.64711e-07 -1.70027e-07)
        porous   : (0 0 0)

Time = 3498

smoothSolver:  Solving for Ux, Initial residual = 0.00130524, Final residual = 3.81942e-05, No Iterations 2
smoothSolver:  Solving for Uy, Initial residual = 0.00215465, Final residual = 0.000122366, No Iterations 2
GAMG:  Solving for p, Initial residual = 0.423988, Final residual = 0.0306687, No Iterations 3
time step continuity errors : sum local = 2.3976e-07, global = 4.95593e-19, cumulative = -1.00411e-17
ExecutionTime = 509.98 s  ClockTime = 510 s

forces forces write:
    sum of forces:
        pressure : (7.20533e-07 1.13864e-05 2.61246e-25)
        viscous  : (1.76471e-06 5.04314e-07 -6.02866e-26)
        porous   : (0 0 0)
    sum of moments:
        pressure : (-1.70795e-06 1.0808e-07 -2.48851e-06)
        viscous  : (-7.56471e-08 2.64706e-07 -1.70031e-07)
        porous   : (0 0 0)

Time = 3499

smoothSolver:  Solving for Ux, Initial residual = 0.00130835, Final residual = 3.88551e-05, No Iterations 2
smoothSolver:  Solving for Uy, Initial residual = 0.00217381, Final residual = 0.000125064, No Iterations 2
GAMG:  Solving for p, Initial residual = 0.422659, Final residual = 0.0294653, No Iterations 3
time step continuity errors : sum local = 2.25953e-07, global = -5.34486e-19, cumulative = -1.05756e-17
ExecutionTime = 510.13 s  ClockTime = 510 s

forces forces write:
    sum of forces:
        pressure : (7.16062e-07 1.1377e-05 2.6061e-25)
        viscous  : (1.76468e-06 5.04322e-07 -6.03191e-26)
        porous   : (0 0 0)
    sum of moments:
        pressure : (-1.70655e-06 1.07409e-07 -2.49203e-06)
        viscous  : (-7.56484e-08 2.64702e-07 -1.70037e-07)
        porous   : (0 0 0)

Time = 3500

smoothSolver:  Solving for Ux, Initial residual = 0.00130988, Final residual = 3.92581e-05, No Iterations 2
smoothSolver:  Solving for Uy, Initial residual = 0.00218824, Final residual = 0.000126389, No Iterations 2
GAMG:  Solving for p, Initial residual = 0.41469, Final residual = 0.0295458, No Iterations 3
time step continuity errors : sum local = 2.16535e-07, global = -2.17294e-19, cumulative = -1.07929e-17
ExecutionTime = 510.49 s  ClockTime = 511 s

forces forces write:
    sum of forces:
        pressure : (7.10418e-07 1.13483e-05 2.59348e-25)
        viscous  : (1.76465e-06 5.04321e-07 -6.01049e-26)
        porous   : (0 0 0)
    sum of moments:
        pressure : (-1.70224e-06 1.06563e-07 -2.49675e-06)
        viscous  : (-7.56482e-08 2.64698e-07 -1.70043e-07)
        porous   : (0 0 0)

forceCoeffs forceCoeffs write:
    Cm    = -2.77791e-09
    Cd    = 5.58931e-09
    Cl    = 1.13067e-08
    Cl(f) = 2.87545e-09
    Cl(r) = 8.43127e-09

End

