/*---------------------------------------------------------------------------*\
| =========                 |                                                 |
| \\      /  F ield         | OpenFOAM: The Open Source CFD Toolbox           |
|  \\    /   O peration     | Version:  5.x                                   |
|   \\  /    A nd           | Web:      www.OpenFOAM.org                      |
|    \\/     M anipulation  |                                                 |
\*---------------------------------------------------------------------------*/
Build  : 5.x-68e8507efb72
Exec   : simpleFoam
Date   : May 07 2022
Time   : 00:50:50
Host   : "Desktop-PC"
PID    : 11114
I/O    : uncollated
Case   : /home/emilio/code/flow-separation-prediction/openfoam/run/Airfoil2D_full
nProcs : 1
sigFpe : Enabling floating point exception trapping (FOAM_SIGFPE).
fileModificationChecking : Monitoring run-time modified files using timeStampMaster (fileModificationSkew 10)
allowSystemOperations : Allowing user-supplied system call operations

// * * * * * * * * * * * * * * * * * * * * * * * * * * * * * * * * * * * * * //
Create time

Create mesh for time = 0


SIMPLE: convergence criteria
    field p	 tolerance 1e-05
    field U	 tolerance 1e-07
    field nuTilda	 tolerance 1e-07

Reading field p

Reading field U

Reading/calculating face flux field phi

Selecting incompressible transport model Newtonian
Selecting turbulence model type laminar
Selecting laminar stress model Stokes
No MRF models present

No finite volume options present


Starting time loop

forces forces:
    Not including porosity effects
forces forceCoeffs:
    Not including porosity effects
forceCoeffs forceCoeffs:
    Not including porosity effects
Time = 1

smoothSolver:  Solving for Ux, Initial residual = 1, Final residual = 0.0644167, No Iterations 2
smoothSolver:  Solving for Uy, Initial residual = 1, Final residual = 0.0724795, No Iterations 2
GAMG:  Solving for p, Initial residual = 1, Final residual = 0.0866639, No Iterations 14
time step continuity errors : sum local = 1.51885e-07, global = 8.78946e-20, cumulative = 8.78946e-20
ExecutionTime = 0.94 s  ClockTime = 1 s

forces forces write:
    sum of forces:
        pressure : (0.000242929 0.00024441 4.19319e-23)
        viscous  : (0.000321411 1.33108e-05 -6.16692e-24)
        porous   : (0 0 0)
    sum of moments:
        pressure : (-3.66614e-05 3.64393e-05 6.08551e-05)
        viscous  : (-1.99661e-06 4.82117e-05 -1.02831e-05)
        porous   : (0 0 0)

Time = 2

smoothSolver:  Solving for Ux, Initial residual = 0.264339, Final residual = 0.0118825, No Iterations 4
smoothSolver:  Solving for Uy, Initial residual = 0.518552, Final residual = 0.0381831, No Iterations 4
GAMG:  Solving for p, Initial residual = 0.870685, Final residual = 0.0659103, No Iterations 7
time step continuity errors : sum local = 2.30602e-07, global = -8.64854e-21, cumulative = 7.9246e-20
ExecutionTime = 1.17 s  ClockTime = 1 s

forces forces write:
    sum of forces:
        pressure : (0.000176163 0.000184971 3.3858e-23)
        viscous  : (0.000179835 -2.08551e-06 -5.38878e-24)
        porous   : (0 0 0)
    sum of moments:
        pressure : (-2.77457e-05 2.64244e-05 4.54556e-05)
        viscous  : (3.12827e-07 2.69753e-05 -8.32928e-06)
        porous   : (0 0 0)

Time = 3

smoothSolver:  Solving for Ux, Initial residual = 0.109536, Final residual = 0.00563907, No Iterations 4
smoothSolver:  Solving for Uy, Initial residual = 0.183893, Final residual = 0.0137789, No Iterations 4
GAMG:  Solving for p, Initial residual = 0.675634, Final residual = 0.0587405, No Iterations 14
time step continuity errors : sum local = 2.33439e-07, global = 1.10275e-19, cumulative = 1.89521e-19
ExecutionTime = 1.44 s  ClockTime = 2 s

forces forces write:
    sum of forces:
        pressure : (-3.05989e-05 -2.18951e-05 -2.97292e-24)
        viscous  : (0.000119115 -7.37774e-06 2.43205e-25)
        porous   : (0 0 0)
    sum of moments:
        pressure : (3.28426e-06 -4.58984e-06 -6.33668e-06)
        viscous  : (1.10666e-06 1.78673e-05 -7.23424e-06)
        porous   : (0 0 0)

Time = 4

smoothSolver:  Solving for Ux, Initial residual = 0.0402822, Final residual = 0.00194646, No Iterations 4
smoothSolver:  Solving for Uy, Initial residual = 0.0474575, Final residual = 0.00314686, No Iterations 4
GAMG:  Solving for p, Initial residual = 0.913053, Final residual = 0.0788324, No Iterations 11
time step continuity errors : sum local = 3.61999e-07, global = -1.0872e-19, cumulative = 8.08007e-20
ExecutionTime = 1.69 s  ClockTime = 2 s

forces forces write:
    sum of forces:
        pressure : (-0.000137131 -0.000139475 -2.27644e-23)
        viscous  : (9.29377e-05 -5.22546e-06 3.3484e-24)
        porous   : (0 0 0)
    sum of moments:
        pressure : (2.09213e-05 -2.05697e-05 -3.5434e-05)
        viscous  : (7.83819e-07 1.39407e-05 -5.65022e-06)
        porous   : (0 0 0)

Time = 5

smoothSolver:  Solving for Ux, Initial residual = 0.0593957, Final residual = 0.00362521, No Iterations 4
smoothSolver:  Solving for Uy, Initial residual = 0.2092, Final residual = 0.0154821, No Iterations 4
GAMG:  Solving for p, Initial residual = 0.836356, Final residual = 0.0824782, No Iterations 8
time step continuity errors : sum local = 3.6549e-07, global = 1.87525e-19, cumulative = 2.68326e-19
ExecutionTime = 1.9 s  ClockTime = 2 s

forces forces write:
    sum of forces:
        pressure : (-8.11755e-05 -9.09122e-05 -1.85358e-23)
        viscous  : (8.08858e-05 -7.53505e-07 3.08813e-24)
        porous   : (0 0 0)
    sum of moments:
        pressure : (1.36368e-05 -1.21763e-05 -2.25438e-05)
        viscous  : (1.13026e-07 1.21329e-05 -3.91682e-06)
        porous   : (0 0 0)

Time = 6

smoothSolver:  Solving for Ux, Initial residual = 0.0446944, Final residual = 0.00256837, No Iterations 4
smoothSolver:  Solving for Uy, Initial residual = 0.210533, Final residual = 0.015089, No Iterations 4
GAMG:  Solving for p, Initial residual = 0.770353, Final residual = 0.0650579, No Iterations 13
time step continuity errors : sum local = 2.72063e-07, global = 5.90463e-20, cumulative = 3.27372e-19
ExecutionTime = 2.17 s  ClockTime = 2 s

forces forces write:
    sum of forces:
        pressure : (3.09581e-05 2.5339e-05 7.68243e-25)
        viscous  : (7.25695e-05 1.62659e-06 1.62285e-25)
        porous   : (0 0 0)
    sum of moments:
        pressure : (-3.80085e-06 4.64371e-06 7.03193e-06)
        viscous  : (-2.43988e-07 1.08854e-05 -2.7756e-06)
        porous   : (0 0 0)

Time = 7

smoothSolver:  Solving for Ux, Initial residual = 0.0315307, Final residual = 0.00198501, No Iterations 4
smoothSolver:  Solving for Uy, Initial residual = 0.0827553, Final residual = 0.00589224, No Iterations 4
GAMG:  Solving for p, Initial residual = 0.889369, Final residual = 0.0521351, No Iterations 11
time step continuity errors : sum local = 2.29364e-07, global = -6.27028e-20, cumulative = 2.64669e-19
ExecutionTime = 2.42 s  ClockTime = 3 s

forces forces write:
    sum of forces:
        pressure : (7.63079e-05 8.07418e-05 1.25606e-23)
        viscous  : (6.43612e-05 1.03475e-06 -1.88989e-24)
        porous   : (0 0 0)
    sum of moments:
        pressure : (-1.21113e-05 1.14462e-05 2.06338e-05)
        viscous  : (-1.55212e-07 9.65417e-06 -2.45448e-06)
        porous   : (0 0 0)

Time = 8

smoothSolver:  Solving for Ux, Initial residual = 0.0380831, Final residual = 0.00250571, No Iterations 4
smoothSolver:  Solving for Uy, Initial residual = 0.133437, Final residual = 0.0102577, No Iterations 4
GAMG:  Solving for p, Initial residual = 0.830259, Final residual = 0.0818352, No Iterations 8
time step continuity errors : sum local = 3.05631e-07, global = -1.50683e-20, cumulative = 2.49601e-19
ExecutionTime = 2.64 s  ClockTime = 3 s

forces forces write:
    sum of forces:
        pressure : (3.62821e-05 4.48802e-05 9.50348e-24)
        viscous  : (5.67929e-05 -6.65888e-07 -1.65724e-24)
        porous   : (0 0 0)
    sum of moments:
        pressure : (-6.73203e-06 5.44232e-06 1.07995e-05)
        viscous  : (9.98832e-08 8.51893e-06 -2.58551e-06)
        porous   : (0 0 0)

Time = 9

smoothSolver:  Solving for Ux, Initial residual = 0.0263793, Final residual = 0.00161873, No Iterations 4
smoothSolver:  Solving for Uy, Initial residual = 0.0630977, Final residual = 0.0044651, No Iterations 4
GAMG:  Solving for p, Initial residual = 0.832974, Final residual = 0.0429688, No Iterations 13
time step continuity errors : sum local = 1.60433e-07, global = -4.69678e-20, cumulative = 2.02633e-19
ExecutionTime = 2.91 s  ClockTime = 3 s

forces forces write:
    sum of forces:
        pressure : (-2.30191e-05 -1.98586e-05 1.88899e-25)
        viscous  : (5.12205e-05 -1.49533e-06 -2.91857e-25)
        porous   : (0 0 0)
    sum of moments:
        pressure : (2.97879e-06 -3.45287e-06 -5.96115e-06)
        viscous  : (2.243e-07 7.68308e-06 -2.66363e-06)
        porous   : (0 0 0)

Time = 10

smoothSolver:  Solving for Ux, Initial residual = 0.0172245, Final residual = 0.00109016, No Iterations 4
smoothSolver:  Solving for Uy, Initial residual = 0.0452447, Final residual = 0.00332742, No Iterations 4
GAMG:  Solving for p, Initial residual = 0.856197, Final residual = 0.0740923, No Iterations 9
time step continuity errors : sum local = 2.54969e-07, global = 1.73782e-20, cumulative = 2.20011e-19
ExecutionTime = 3.13 s  ClockTime = 3 s

forces forces write:
    sum of forces:
        pressure : (-4.03557e-05 -4.47643e-05 -4.32022e-24)
        viscous  : (4.77746e-05 -1.03865e-06 4.8143e-25)
        porous   : (0 0 0)
    sum of moments:
        pressure : (6.71465e-06 -6.05336e-06 -1.19223e-05)
        viscous  : (1.55798e-07 7.16619e-06 -2.47122e-06)
        porous   : (0 0 0)

Time = 11

smoothSolver:  Solving for Ux, Initial residual = 0.0184563, Final residual = 0.00117771, No Iterations 4
smoothSolver:  Solving for Uy, Initial residual = 0.0805991, Final residual = 0.00611308, No Iterations 4
GAMG:  Solving for p, Initial residual = 0.841408, Final residual = 0.0767305, No Iterations 9
time step continuity errors : sum local = 2.3279e-07, global = 1.54822e-19, cumulative = 3.74834e-19
ExecutionTime = 3.36 s  ClockTime = 4 s

forces forces write:
    sum of forces:
        pressure : (-1.45611e-05 -2.03312e-05 -2.29955e-24)
        viscous  : (4.54207e-05 -1.68925e-07 3.0509e-25)
        porous   : (0 0 0)
    sum of moments:
        pressure : (3.04968e-06 -2.18417e-06 -5.05258e-06)
        viscous  : (2.53388e-08 6.8131e-06 -2.13092e-06)
        porous   : (0 0 0)

Time = 12

smoothSolver:  Solving for Ux, Initial residual = 0.0143445, Final residual = 0.000861233, No Iterations 4
smoothSolver:  Solving for Uy, Initial residual = 0.0491036, Final residual = 0.00336778, No Iterations 4
GAMG:  Solving for p, Initial residual = 0.83073, Final residual = 0.0761874, No Iterations 9
time step continuity errors : sum local = 2.21994e-07, global = 1.19133e-19, cumulative = 4.93966e-19
ExecutionTime = 3.59 s  ClockTime = 4 s

forces forces write:
    sum of forces:
        pressure : (1.54487e-05 1.49695e-05 3.04749e-25)
        viscous  : (4.31258e-05 2.11077e-07 7.61836e-26)
        porous   : (0 0 0)
    sum of moments:
        pressure : (-2.24543e-06 2.3173e-06 4.22009e-06)
        viscous  : (-3.16616e-08 6.46888e-06 -1.86807e-06)
        porous   : (0 0 0)

Time = 13

smoothSolver:  Solving for Ux, Initial residual = 0.0143629, Final residual = 0.000987049, No Iterations 4
smoothSolver:  Solving for Uy, Initial residual = 0.0334293, Final residual = 0.00247589, No Iterations 4
GAMG:  Solving for p, Initial residual = 0.821484, Final residual = 0.075131, No Iterations 8
time step continuity errors : sum local = 1.89086e-07, global = -8.30534e-20, cumulative = 4.10913e-19
ExecutionTime = 3.81 s  ClockTime = 4 s

forces forces write:
    sum of forces:
        pressure : (2.0853e-05 2.52601e-05 9.12617e-25)
        viscous  : (4.06194e-05 -3.19618e-08 3.13297e-26)
        porous   : (0 0 0)
    sum of moments:
        pressure : (-3.78901e-06 3.12795e-06 6.55567e-06)
        viscous  : (4.79427e-09 6.09291e-06 -1.77761e-06)
        porous   : (0 0 0)

Time = 14

smoothSolver:  Solving for Ux, Initial residual = 0.0148324, Final residual = 0.00100602, No Iterations 4
smoothSolver:  Solving for Uy, Initial residual = 0.041617, Final residual = 0.00312846, No Iterations 4
GAMG:  Solving for p, Initial residual = 0.862418, Final residual = 0.0721285, No Iterations 9
time step continuity errors : sum local = 1.69587e-07, global = 1.70489e-19, cumulative = 5.81402e-19
ExecutionTime = 4.05 s  ClockTime = 4 s

forces forces write:
    sum of forces:
        pressure : (5.19473e-06 9.4506e-06 -3.56718e-25)
        viscous  : (3.82295e-05 -4.33001e-07 1.60979e-25)
        porous   : (0 0 0)
    sum of moments:
        pressure : (-1.41759e-06 7.7921e-07 2.06698e-06)
        viscous  : (6.49502e-08 5.73442e-06 -1.78579e-06)
        porous   : (0 0 0)

Time = 15

smoothSolver:  Solving for Ux, Initial residual = 0.0111718, Final residual = 0.000720547, No Iterations 4
smoothSolver:  Solving for Uy, Initial residual = 0.0158201, Final residual = 0.000970093, No Iterations 4
GAMG:  Solving for p, Initial residual = 0.827987, Final residual = 0.0569752, No Iterations 9
time step continuity errors : sum local = 1.21627e-07, global = -5.72481e-21, cumulative = 5.75677e-19
ExecutionTime = 4.28 s  ClockTime = 4 s

forces forces write:
    sum of forces:
        pressure : (-1.01128e-05 -9.43515e-06 -1.71793e-24)
        viscous  : (3.63071e-05 -5.6119e-07 2.87717e-25)
        porous   : (0 0 0)
    sum of moments:
        pressure : (1.41527e-06 -1.51692e-06 -2.92293e-06)
        viscous  : (8.41786e-08 5.44606e-06 -1.77054e-06)
        porous   : (0 0 0)

Time = 16

smoothSolver:  Solving for Ux, Initial residual = 0.00896936, Final residual = 0.000607128, No Iterations 4
smoothSolver:  Solving for Uy, Initial residual = 0.0258912, Final residual = 0.00191766, No Iterations 4
GAMG:  Solving for p, Initial residual = 0.811512, Final residual = 0.0699591, No Iterations 8
time step continuity errors : sum local = 1.26203e-07, global = -7.16618e-20, cumulative = 5.04015e-19
ExecutionTime = 4.5 s  ClockTime = 5 s

forces forces write:
    sum of forces:
        pressure : (-1.08122e-05 -1.29804e-05 -6.86534e-25)
        viscous  : (3.48462e-05 -3.88185e-07 2.07863e-26)
        porous   : (0 0 0)
    sum of moments:
        pressure : (1.94706e-06 -1.62183e-06 -3.65016e-06)
        viscous  : (5.82278e-08 5.22693e-06 -1.68207e-06)
        porous   : (0 0 0)

Time = 17

smoothSolver:  Solving for Ux, Initial residual = 0.0085934, Final residual = 0.000570467, No Iterations 4
smoothSolver:  Solving for Uy, Initial residual = 0.0299859, Final residual = 0.00222, No Iterations 4
GAMG:  Solving for p, Initial residual = 0.851645, Final residual = 0.0614934, No Iterations 9
time step continuity errors : sum local = 1.08449e-07, global = 3.09101e-20, cumulative = 5.34925e-19
ExecutionTime = 4.73 s  ClockTime = 5 s

forces forces write:
    sum of forces:
        pressure : (-1.49178e-06 -3.02661e-06 8.83799e-26)
        viscous  : (3.35851e-05 -1.67221e-07 -7.20955e-26)
        porous   : (0 0 0)
    sum of moments:
        pressure : (4.53992e-07 -2.23767e-07 -8.55832e-07)
        viscous  : (2.50832e-08 5.03776e-06 -1.55976e-06)
        porous   : (0 0 0)

Time = 18

smoothSolver:  Solving for Ux, Initial residual = 0.00767582, Final residual = 0.000513994, No Iterations 4
smoothSolver:  Solving for Uy, Initial residual = 0.0136139, Final residual = 0.000859301, No Iterations 4
GAMG:  Solving for p, Initial residual = 0.806611, Final residual = 0.0718083, No Iterations 7
time step continuity errors : sum local = 1.11119e-07, global = -3.0931e-23, cumulative = 5.34894e-19
ExecutionTime = 4.94 s  ClockTime = 5 s

forces forces write:
    sum of forces:
        pressure : (6.27242e-06 6.82296e-06 7.87137e-25)
        viscous  : (3.23161e-05 -1.04825e-07 -1.40442e-25)
        porous   : (0 0 0)
    sum of moments:
        pressure : (-1.02344e-06 9.40864e-07 1.73206e-06)
        viscous  : (1.57238e-08 4.84742e-06 -1.46553e-06)
        porous   : (0 0 0)

Time = 19

smoothSolver:  Solving for Ux, Initial residual = 0.00808108, Final residual = 0.000584557, No Iterations 4
smoothSolver:  Solving for Uy, Initial residual = 0.0136013, Final residual = 0.000977358, No Iterations 4
GAMG:  Solving for p, Initial residual = 0.788725, Final residual = 0.0738105, No Iterations 7
time step continuity errors : sum local = 9.83412e-08, global = 2.11062e-20, cumulative = 5.56001e-19
ExecutionTime = 5.14 s  ClockTime = 5 s

forces forces write:
    sum of forces:
        pressure : (5.90976e-06 7.48624e-06 7.91959e-25)
        viscous  : (3.10149e-05 -1.91959e-07 -1.21164e-25)
        porous   : (0 0 0)
    sum of moments:
        pressure : (-1.12294e-06 8.86465e-07 1.80265e-06)
        viscous  : (2.87938e-08 4.65223e-06 -1.42079e-06)
        porous   : (0 0 0)

Time = 20

smoothSolver:  Solving for Ux, Initial residual = 0.00777247, Final residual = 0.000547118, No Iterations 4
smoothSolver:  Solving for Uy, Initial residual = 0.012193, Final residual = 0.000863325, No Iterations 4
GAMG:  Solving for p, Initial residual = 0.843053, Final residual = 0.0772995, No Iterations 7
time step continuity errors : sum local = 9.49171e-08, global = 7.81513e-20, cumulative = 6.34152e-19
ExecutionTime = 5.35 s  ClockTime = 6 s

forces forces write:
    sum of forces:
        pressure : (4.3836e-07 1.35617e-06 3.28684e-25)
        viscous  : (2.97946e-05 -2.88336e-07 -5.56077e-26)
        porous   : (0 0 0)
    sum of moments:
        pressure : (-2.03426e-07 6.5754e-08 1.38412e-07)
        viscous  : (4.32503e-08 4.46919e-06 -1.40023e-06)
        porous   : (0 0 0)

Time = 21

smoothSolver:  Solving for Ux, Initial residual = 0.00643164, Final residual = 0.00044594, No Iterations 4
smoothSolver:  Solving for Uy, Initial residual = 0.00637178, Final residual = 0.000368083, No Iterations 4
GAMG:  Solving for p, Initial residual = 0.810155, Final residual = 0.0545384, No Iterations 9
time step continuity errors : sum local = 6.03724e-08, global = -1.86995e-19, cumulative = 4.47157e-19
ExecutionTime = 5.59 s  ClockTime = 6 s

forces forces write:
    sum of forces:
        pressure : (-3.48789e-06 -3.65035e-06 -2.19283e-26)
        viscous  : (2.87424e-05 -2.95161e-07 -2.10705e-26)
        porous   : (0 0 0)
    sum of moments:
        pressure : (5.47553e-07 -5.23183e-07 -1.14503e-06)
        viscous  : (4.42741e-08 4.31137e-06 -1.36954e-06)
        porous   : (0 0 0)

Time = 22

smoothSolver:  Solving for Ux, Initial residual = 0.00569318, Final residual = 0.000407993, No Iterations 4
smoothSolver:  Solving for Uy, Initial residual = 0.0128823, Final residual = 0.000945777, No Iterations 4
GAMG:  Solving for p, Initial residual = 0.78355, Final residual = 0.0646841, No Iterations 6
time step continuity errors : sum local = 6.33456e-08, global = 1.17766e-19, cumulative = 5.64923e-19
ExecutionTime = 5.8 s  ClockTime = 6 s

forces forces write:
    sum of forces:
        pressure : (-2.80401e-06 -3.2369e-06 2.6174e-26)
        viscous  : (2.78407e-05 -2.29849e-07 -4.31356e-26)
        porous   : (0 0 0)
    sum of moments:
        pressure : (4.85535e-07 -4.20602e-07 -9.90997e-07)
        viscous  : (3.44774e-08 4.1761e-06 -1.31844e-06)
        porous   : (0 0 0)

Time = 23

smoothSolver:  Solving for Ux, Initial residual = 0.00545861, Final residual = 0.000385124, No Iterations 4
smoothSolver:  Solving for Uy, Initial residual = 0.011672, Final residual = 0.000843685, No Iterations 4
GAMG:  Solving for p, Initial residual = 0.798771, Final residual = 0.0740526, No Iterations 7
time step continuity errors : sum local = 6.88359e-08, global = -3.84352e-20, cumulative = 5.26488e-19
ExecutionTime = 6 s  ClockTime = 6 s

forces forces write:
    sum of forces:
        pressure : (3.29119e-07 4.6624e-07 2.96961e-25)
        viscous  : (2.70108e-05 -1.70002e-07 -8.63989e-26)
        porous   : (0 0 0)
    sum of moments:
        pressure : (-6.9936e-08 4.93679e-08 -2.78054e-08)
        viscous  : (2.55004e-08 4.05161e-06 -1.26137e-06)
        porous   : (0 0 0)

Time = 24

smoothSolver:  Solving for Ux, Initial residual = 0.00538339, Final residual = 0.000389441, No Iterations 4
smoothSolver:  Solving for Uy, Initial residual = 0.0059921, Final residual = 0.000361491, No Iterations 4
GAMG:  Solving for p, Initial residual = 0.766057, Final residual = 0.0708749, No Iterations 7
time step continuity errors : sum local = 5.95133e-08, global = 1.19408e-19, cumulative = 6.45896e-19
ExecutionTime = 6.21 s  ClockTime = 6 s

forces forces write:
    sum of forces:
        pressure : (2.23083e-06 2.93165e-06 4.66877e-25)
        viscous  : (2.61981e-05 -1.62154e-07 -1.03529e-25)
        porous   : (0 0 0)
    sum of moments:
        pressure : (-4.39748e-07 3.34624e-07 5.76341e-07)
        viscous  : (2.43231e-08 3.92971e-06 -1.21596e-06)
        porous   : (0 0 0)

Time = 25

smoothSolver:  Solving for Ux, Initial residual = 0.00534643, Final residual = 0.000398981, No Iterations 4
smoothSolver:  Solving for Uy, Initial residual = 0.00545818, Final residual = 0.000358449, No Iterations 4
GAMG:  Solving for p, Initial residual = 0.760717, Final residual = 0.0648102, No Iterations 7
time step continuity errors : sum local = 4.77023e-08, global = 1.76862e-19, cumulative = 8.22758e-19
ExecutionTime = 6.43 s  ClockTime = 7 s

forces forces write:
    sum of forces:
        pressure : (1.42661e-06 2.25273e-06 1.81357e-26)
        viscous  : (2.54095e-05 -1.90186e-07 2.63365e-27)
        porous   : (0 0 0)
    sum of moments:
        pressure : (-3.3791e-07 2.13991e-07 3.80473e-07)
        viscous  : (2.85278e-08 3.81142e-06 -1.18587e-06)
        porous   : (0 0 0)

Time = 26

smoothSolver:  Solving for Ux, Initial residual = 0.00509196, Final residual = 0.000372263, No Iterations 4
smoothSolver:  Solving for Uy, Initial residual = 0.00421684, Final residual = 0.000259272, No Iterations 4
GAMG:  Solving for p, Initial residual = 0.776953, Final residual = 0.0446069, No Iterations 7
time step continuity errors : sum local = 3.04377e-08, global = -1.93315e-19, cumulative = 6.29443e-19
ExecutionTime = 6.64 s  ClockTime = 7 s

forces forces write:
    sum of forces:
        pressure : (-3.67095e-07 7.32089e-08 -1.37333e-25)
        viscous  : (2.46782e-05 -2.11156e-07 3.00619e-26)
        porous   : (0 0 0)
    sum of moments:
        pressure : (-1.09813e-08 -5.50643e-08 -1.68637e-07)
        viscous  : (3.16733e-08 3.70173e-06 -1.16183e-06)
        porous   : (0 0 0)

Time = 27

smoothSolver:  Solving for Ux, Initial residual = 0.00456862, Final residual = 0.000335405, No Iterations 4
smoothSolver:  Solving for Uy, Initial residual = 0.00523524, Final residual = 0.000350689, No Iterations 4
GAMG:  Solving for p, Initial residual = 0.744796, Final residual = 0.0375432, No Iterations 7
time step continuity errors : sum local = 2.31246e-08, global = 7.60229e-21, cumulative = 6.37046e-19
ExecutionTime = 6.84 s  ClockTime = 7 s

forces forces write:
    sum of forces:
        pressure : (-1.25422e-06 -1.07173e-06 -2.15247e-25)
        viscous  : (2.40156e-05 -2.03416e-07 3.69019e-26)
        porous   : (0 0 0)
    sum of moments:
        pressure : (1.6076e-07 -1.88133e-07 -4.35597e-07)
        viscous  : (3.05124e-08 3.60234e-06 -1.13407e-06)
        porous   : (0 0 0)

Time = 28

smoothSolver:  Solving for Ux, Initial residual = 0.00424894, Final residual = 0.000316897, No Iterations 4
smoothSolver:  Solving for Uy, Initial residual = 0.0066786, Final residual = 0.000486745, No Iterations 4
GAMG:  Solving for p, Initial residual = 0.711828, Final residual = 0.0473144, No Iterations 6
time step continuity errors : sum local = 2.70991e-08, global = -2.18104e-20, cumulative = 6.15235e-19
ExecutionTime = 7.05 s  ClockTime = 7 s

forces forces write:
    sum of forces:
        pressure : (-7.0188e-07 -4.3436e-07 -1.68208e-25)
        viscous  : (2.34088e-05 -1.79253e-07 2.17807e-26)
        porous   : (0 0 0)
    sum of moments:
        pressure : (6.5154e-08 -1.05282e-07 -2.61851e-07)
        viscous  : (2.68879e-08 3.51133e-06 -1.10111e-06)
        porous   : (0 0 0)

Time = 29

smoothSolver:  Solving for Ux, Initial residual = 0.00416117, Final residual = 0.000309017, No Iterations 4
smoothSolver:  Solving for Uy, Initial residual = 0.00562971, Final residual = 0.000397135, No Iterations 4
GAMG:  Solving for p, Initial residual = 0.706716, Final residual = 0.0699071, No Iterations 6
time step continuity errors : sum local = 3.81549e-08, global = -7.49136e-20, cumulative = 5.40322e-19
ExecutionTime = 7.26 s  ClockTime = 7 s

forces forces write:
    sum of forces:
        pressure : (3.245e-07 8.22499e-07 -8.0695e-26)
        viscous  : (2.28327e-05 -1.62096e-07 4.58402e-27)
        porous   : (0 0 0)
    sum of moments:
        pressure : (-1.23375e-07 4.8675e-08 4.45556e-08)
        viscous  : (2.43144e-08 3.4249e-06 -1.06825e-06)
        porous   : (0 0 0)

Time = 30

smoothSolver:  Solving for Ux, Initial residual = 0.00411142, Final residual = 0.000309811, No Iterations 4
smoothSolver:  Solving for Uy, Initial residual = 0.00381184, Final residual = 0.000242501, No Iterations 4
GAMG:  Solving for p, Initial residual = 0.684483, Final residual = 0.0661726, No Iterations 6
time step continuity errors : sum local = 3.38782e-08, global = -5.96809e-20, cumulative = 4.80641e-19
ExecutionTime = 7.45 s  ClockTime = 8 s

forces forces write:
    sum of forces:
        pressure : (7.35297e-07 1.32055e-06 -4.75069e-26)
        viscous  : (2.22731e-05 -1.6135e-07 1.83129e-27)
        porous   : (0 0 0)
    sum of moments:
        pressure : (-1.98083e-07 1.10295e-07 1.50111e-07)
        viscous  : (2.42025e-08 3.34096e-06 -1.04045e-06)
        porous   : (0 0 0)

Time = 31

smoothSolver:  Solving for Ux, Initial residual = 0.00400141, Final residual = 0.000304725, No Iterations 4
smoothSolver:  Solving for Uy, Initial residual = 0.00325469, Final residual = 0.000204443, No Iterations 4
GAMG:  Solving for p, Initial residual = 0.666679, Final residual = 0.0664262, No Iterations 8
time step continuity errors : sum local = 3.13664e-08, global = -7.84526e-20, cumulative = 4.02188e-19
ExecutionTime = 7.68 s  ClockTime = 8 s

forces forces write:
    sum of forces:
        pressure : (3.63177e-07 8.31034e-07 -8.18567e-26)
        viscous  : (2.17334e-05 -1.68466e-07 1.26206e-26)
        porous   : (0 0 0)
    sum of moments:
        pressure : (-1.24655e-07 5.44766e-08 1.85037e-08)
        viscous  : (2.52699e-08 3.26001e-06 -1.0178e-06)
        porous   : (0 0 0)

Time = 32

smoothSolver:  Solving for Ux, Initial residual = 0.00383491, Final residual = 0.000289191, No Iterations 4
smoothSolver:  Solving for Uy, Initial residual = 0.00334525, Final residual = 0.00021548, No Iterations 4
GAMG:  Solving for p, Initial residual = 0.653537, Final residual = 0.0573991, No Iterations 7
time step continuity errors : sum local = 2.55789e-08, global = 1.62372e-19, cumulative = 5.64561e-19
ExecutionTime = 7.88 s  ClockTime = 8 s

forces forces write:
    sum of forces:
        pressure : (-1.10387e-07 1.18093e-07 1.35762e-25)
        viscous  : (2.12204e-05 -1.70641e-07 -3.53631e-26)
        porous   : (0 0 0)
    sum of moments:
        pressure : (-1.77139e-08 -1.6558e-08 -1.51591e-07)
        viscous  : (2.55961e-08 3.18305e-06 -9.96959e-07)
        porous   : (0 0 0)

Time = 33

smoothSolver:  Solving for Ux, Initial residual = 0.00362421, Final residual = 0.000273982, No Iterations 4
smoothSolver:  Solving for Uy, Initial residual = 0.00423968, Final residual = 0.000294767, No Iterations 4
GAMG:  Solving for p, Initial residual = 0.617086, Final residual = 0.0524231, No Iterations 6
time step continuity errors : sum local = 2.19497e-08, global = -1.52201e-19, cumulative = 4.1236e-19
ExecutionTime = 8.08 s  ClockTime = 8 s

forces forces write:
    sum of forces:
        pressure : (-2.81457e-07 -7.10431e-08 1.23234e-25)
        viscous  : (2.07358e-05 -1.63901e-07 -3.4414e-26)
        porous   : (0 0 0)
    sum of moments:
        pressure : (1.06565e-08 -4.22186e-08 -1.82746e-07)
        viscous  : (2.45851e-08 3.11037e-06 -9.75153e-07)
        porous   : (0 0 0)

Time = 34

smoothSolver:  Solving for Ux, Initial residual = 0.00345524, Final residual = 0.00026452, No Iterations 4
smoothSolver:  Solving for Uy, Initial residual = 0.0044324, Final residual = 0.000316167, No Iterations 4
GAMG:  Solving for p, Initial residual = 0.585884, Final residual = 0.049816, No Iterations 6
time step continuity errors : sum local = 1.97398e-08, global = -7.35497e-20, cumulative = 3.3881e-19
ExecutionTime = 8.28 s  ClockTime = 8 s

forces forces write:
    sum of forces:
        pressure : (-3.61111e-08 2.79652e-07 1.46656e-25)
        viscous  : (2.02777e-05 -1.53887e-07 -4.14043e-26)
        porous   : (0 0 0)
    sum of moments:
        pressure : (-4.19477e-08 -5.41667e-09 -8.90116e-08)
        viscous  : (2.3083e-08 3.04166e-06 -9.52405e-07)
        porous   : (0 0 0)

Time = 35

smoothSolver:  Solving for Ux, Initial residual = 0.00340499, Final residual = 0.000260076, No Iterations 4
smoothSolver:  Solving for Uy, Initial residual = 0.00372899, Final residual = 0.000258878, No Iterations 4
GAMG:  Solving for p, Initial residual = 0.564029, Final residual = 0.0391243, No Iterations 6
time step continuity errors : sum local = 1.48042e-08, global = 6.24366e-20, cumulative = 4.01246e-19
ExecutionTime = 8.47 s  ClockTime = 9 s

forces forces write:
    sum of forces:
        pressure : (2.61856e-07 6.87288e-07 1.73005e-25)
        viscous  : (1.98381e-05 -1.47471e-07 -4.79406e-26)
        porous   : (0 0 0)
    sum of moments:
        pressure : (-1.03093e-07 3.92784e-08 3.37936e-09)
        viscous  : (2.21207e-08 2.97571e-06 -9.30555e-07)
        porous   : (0 0 0)

Time = 36

smoothSolver:  Solving for Ux, Initial residual = 0.00334466, Final residual = 0.000256361, No Iterations 4
smoothSolver:  Solving for Uy, Initial residual = 0.00305593, Final residual = 0.000202598, No Iterations 4
GAMG:  Solving for p, Initial residual = 0.550242, Final residual = 0.0289768, No Iterations 7
time step continuity errors : sum local = 1.0349e-08, global = -9.52792e-20, cumulative = 3.05967e-19
ExecutionTime = 8.67 s  ClockTime = 9 s

forces forces write:
    sum of forces:
        pressure : (2.80715e-07 7.46842e-07 7.8307e-26)
        viscous  : (1.9415e-05 -1.4619e-07 -2.64421e-26)
        porous   : (0 0 0)
    sum of moments:
        pressure : (-1.12026e-07 4.21073e-08 5.13075e-09)
        viscous  : (2.19285e-08 2.91225e-06 -9.1091e-07)
        porous   : (0 0 0)

Time = 37

smoothSolver:  Solving for Ux, Initial residual = 0.00323036, Final residual = 0.000249451, No Iterations 4
smoothSolver:  Solving for Uy, Initial residual = 0.00294239, Final residual = 0.000193644, No Iterations 4
GAMG:  Solving for p, Initial residual = 0.525766, Final residual = 0.0328035, No Iterations 6
time step continuity errors : sum local = 1.09248e-08, global = 1.08083e-20, cumulative = 3.16775e-19
ExecutionTime = 8.88 s  ClockTime = 9 s

forces forces write:
    sum of forces:
        pressure : (8.63656e-08 5.06994e-07 -1.88546e-26)
        viscous  : (1.90114e-05 -1.46559e-07 -3.80701e-27)
        porous   : (0 0 0)
    sum of moments:
        pressure : (-7.60491e-08 1.29548e-08 -5.93299e-08)
        viscous  : (2.19838e-08 2.85171e-06 -8.9314e-07)
        porous   : (0 0 0)

Time = 38

smoothSolver:  Solving for Ux, Initial residual = 0.00312622, Final residual = 0.000240728, No Iterations 4
smoothSolver:  Solving for Uy, Initial residual = 0.00317351, Final residual = 0.000214606, No Iterations 4
GAMG:  Solving for p, Initial residual = 0.499932, Final residual = 0.0257856, No Iterations 6
time step continuity errors : sum local = 8.25199e-09, global = -4.7915e-20, cumulative = 2.68861e-19
ExecutionTime = 9.07 s  ClockTime = 9 s

forces forces write:
    sum of forces:
        pressure : (-7.55003e-08 2.85929e-07 -3.26709e-26)
        viscous  : (1.86282e-05 -1.44869e-07 -4.20998e-30)
        porous   : (0 0 0)
    sum of moments:
        pressure : (-4.28894e-08 -1.1325e-08 -1.09043e-07)
        viscous  : (2.17303e-08 2.79422e-06 -8.76058e-07)
        porous   : (0 0 0)

Time = 39

smoothSolver:  Solving for Ux, Initial residual = 0.00301754, Final residual = 0.000232497, No Iterations 4
smoothSolver:  Solving for Uy, Initial residual = 0.00347848, Final residual = 0.000241763, No Iterations 4
GAMG:  Solving for p, Initial residual = 0.475384, Final residual = 0.0425023, No Iterations 5
time step continuity errors : sum local = 1.31713e-08, global = 1.75956e-20, cumulative = 2.86456e-19
ExecutionTime = 9.26 s  ClockTime = 9 s

forces forces write:
    sum of forces:
        pressure : (-8.13482e-08 2.86602e-07 -3.23151e-26)
        viscous  : (1.82637e-05 -1.4067e-07 -2.20206e-28)
        porous   : (0 0 0)
    sum of moments:
        pressure : (-4.29903e-08 -1.22022e-08 -1.00736e-07)
        viscous  : (2.11004e-08 2.73955e-06 -8.58919e-07)
        porous   : (0 0 0)

Time = 40

smoothSolver:  Solving for Ux, Initial residual = 0.0029258, Final residual = 0.000226624, No Iterations 4
smoothSolver:  Solving for Uy, Initial residual = 0.00345224, Final residual = 0.00024095, No Iterations 4
GAMG:  Solving for p, Initial residual = 0.446294, Final residual = 0.0231386, No Iterations 6
time step continuity errors : sum local = 7.05899e-09, global = -1.06427e-19, cumulative = 1.80029e-19
ExecutionTime = 9.46 s  ClockTime = 10 s

forces forces write:
    sum of forces:
        pressure : (2.71253e-08 4.46823e-07 -2.23827e-26)
        viscous  : (1.79152e-05 -1.36093e-07 -3.18633e-27)
        porous   : (0 0 0)
    sum of moments:
        pressure : (-6.70235e-08 4.0688e-09 -5.85907e-08)
        viscous  : (2.0414e-08 2.68728e-06 -8.41911e-07)
        porous   : (0 0 0)

Time = 41

smoothSolver:  Solving for Ux, Initial residual = 0.00287337, Final residual = 0.000222417, No Iterations 4
smoothSolver:  Solving for Uy, Initial residual = 0.00311416, Final residual = 0.000214205, No Iterations 4
GAMG:  Solving for p, Initial residual = 0.421414, Final residual = 0.0226254, No Iterations 6
time step continuity errors : sum local = 6.75753e-09, global = -1.47152e-19, cumulative = 3.2877e-20
ExecutionTime = 9.63 s  ClockTime = 10 s

forces forces write:
    sum of forces:
        pressure : (1.15201e-07 5.71329e-07 -1.51482e-26)
        viscous  : (1.75796e-05 -1.33031e-07 -5.47315e-27)
        porous   : (0 0 0)
    sum of moments:
        pressure : (-8.56993e-08 1.72802e-08 -3.27216e-08)
        viscous  : (1.99547e-08 2.63694e-06 -8.25659e-07)
        porous   : (0 0 0)

Time = 42

smoothSolver:  Solving for Ux, Initial residual = 0.00281496, Final residual = 0.000218067, No Iterations 4
smoothSolver:  Solving for Uy, Initial residual = 0.00285094, Final residual = 0.00019301, No Iterations 4
GAMG:  Solving for p, Initial residual = 0.406474, Final residual = 0.0397896, No Iterations 5
time step continuity errors : sum local = 1.13461e-08, global = 8.6582e-20, cumulative = 1.19459e-19
ExecutionTime = 9.81 s  ClockTime = 10 s

forces forces write:
    sum of forces:
        pressure : (1.36127e-07 5.58565e-07 7.31677e-26)
        viscous  : (1.72545e-05 -1.31437e-07 -2.50837e-26)
        porous   : (0 0 0)
    sum of moments:
        pressure : (-8.37847e-08 2.04191e-08 -4.35138e-08)
        viscous  : (1.97156e-08 2.58818e-06 -8.10488e-07)
        porous   : (0 0 0)

Time = 43

smoothSolver:  Solving for Ux, Initial residual = 0.00273758, Final residual = 0.000212733, No Iterations 4
smoothSolver:  Solving for Uy, Initial residual = 0.00283868, Final residual = 0.000192292, No Iterations 4
GAMG:  Solving for p, Initial residual = 0.385519, Final residual = 0.0320856, No Iterations 5
time step continuity errors : sum local = 8.82157e-09, global = 3.69485e-20, cumulative = 1.56407e-19
ExecutionTime = 10 s  ClockTime = 10 s

forces forces write:
    sum of forces:
        pressure : (8.58935e-08 4.59889e-07 1.21081e-25)
        viscous  : (1.69396e-05 -1.29992e-07 -3.52289e-26)
        porous   : (0 0 0)
    sum of moments:
        pressure : (-6.89833e-08 1.2884e-08 -7.04813e-08)
        viscous  : (1.94989e-08 2.54094e-06 -7.96189e-07)
        porous   : (0 0 0)

Time = 44

smoothSolver:  Solving for Ux, Initial residual = 0.00266103, Final residual = 0.000207014, No Iterations 4
smoothSolver:  Solving for Uy, Initial residual = 0.00296096, Final residual = 0.000203159, No Iterations 4
GAMG:  Solving for p, Initial residual = 0.362724, Final residual = 0.0178707, No Iterations 6
time step continuity errors : sum local = 4.77371e-09, global = 9.28095e-20, cumulative = 2.49217e-19
ExecutionTime = 10.2 s  ClockTime = 10 s

forces forces write:
    sum of forces:
        pressure : (3.7678e-08 3.9198e-07 1.17433e-25)
        viscous  : (1.66362e-05 -1.27734e-07 -3.38758e-26)
        porous   : (0 0 0)
    sum of moments:
        pressure : (-5.8797e-08 5.65169e-09 -8.36931e-08)
        viscous  : (1.916e-08 2.49543e-06 -7.82339e-07)
        porous   : (0 0 0)

Time = 45

smoothSolver:  Solving for Ux, Initial residual = 0.00259486, Final residual = 0.000201752, No Iterations 4
smoothSolver:  Solving for Uy, Initial residual = 0.00303099, Final residual = 0.000209749, No Iterations 4
GAMG:  Solving for p, Initial residual = 0.34143, Final residual = 0.0242391, No Iterations 6
time step continuity errors : sum local = 6.35401e-09, global = 2.03197e-20, cumulative = 2.69537e-19
ExecutionTime = 10.39 s  ClockTime = 11 s

forces forces write:
    sum of forces:
        pressure : (3.61274e-08 4.11945e-07 8.79672e-26)
        viscous  : (1.63447e-05 -1.24821e-07 -2.71413e-26)
        porous   : (0 0 0)
    sum of moments:
        pressure : (-6.17917e-08 5.41911e-09 -7.43704e-08)
        viscous  : (1.87232e-08 2.4517e-06 -7.68727e-07)
        porous   : (0 0 0)

Time = 46

smoothSolver:  Solving for Ux, Initial residual = 0.00253309, Final residual = 0.000197276, No Iterations 4
smoothSolver:  Solving for Uy, Initial residual = 0.00297675, Final residual = 0.000206155, No Iterations 4
GAMG:  Solving for p, Initial residual = 0.325594, Final residual = 0.0153599, No Iterations 7
time step continuity errors : sum local = 3.98946e-09, global = 1.02803e-19, cumulative = 3.7234e-19
ExecutionTime = 10.61 s  ClockTime = 11 s

forces forces write:
    sum of forces:
        pressure : (6.0733e-08 4.76921e-07 5.00154e-26)
        viscous  : (1.60639e-05 -1.22048e-07 -1.89112e-26)
        porous   : (0 0 0)
    sum of moments:
        pressure : (-7.15381e-08 9.10995e-09 -5.77483e-08)
        viscous  : (1.83072e-08 2.40959e-06 -7.55446e-07)
        porous   : (0 0 0)

Time = 47

smoothSolver:  Solving for Ux, Initial residual = 0.00248105, Final residual = 0.000193414, No Iterations 4
smoothSolver:  Solving for Uy, Initial residual = 0.00284018, Final residual = 0.000195815, No Iterations 4
GAMG:  Solving for p, Initial residual = 0.301029, Final residual = 0.0252184, No Iterations 6
time step continuity errors : sum local = 6.34609e-09, global = -8.69381e-20, cumulative = 2.85401e-19
ExecutionTime = 10.81 s  ClockTime = 11 s

forces forces write:
    sum of forces:
        pressure : (7.49459e-08 5.15809e-07 2.3282e-26)
        viscous  : (1.57932e-05 -1.19916e-07 -1.33232e-26)
        porous   : (0 0 0)
    sum of moments:
        pressure : (-7.73714e-08 1.12419e-08 -5.16465e-08)
        viscous  : (1.79874e-08 2.36899e-06 -7.42675e-07)
        porous   : (0 0 0)

Time = 48

smoothSolver:  Solving for Ux, Initial residual = 0.00243368, Final residual = 0.000189656, No Iterations 4
smoothSolver:  Solving for Uy, Initial residual = 0.00273534, Final residual = 0.000187508, No Iterations 4
GAMG:  Solving for p, Initial residual = 0.288297, Final residual = 0.0129436, No Iterations 6
time step continuity errors : sum local = 3.19762e-09, global = -2.07096e-20, cumulative = 2.64692e-19
ExecutionTime = 11 s  ClockTime = 11 s

forces forces write:
    sum of forces:
        pressure : (6.61581e-08 5.02618e-07 2.20277e-26)
        viscous  : (1.55318e-05 -1.18258e-07 -1.32333e-26)
        porous   : (0 0 0)
    sum of moments:
        pressure : (-7.53927e-08 9.92371e-09 -5.89254e-08)
        viscous  : (1.77388e-08 2.32977e-06 -7.30467e-07)
        porous   : (0 0 0)

Time = 49

smoothSolver:  Solving for Ux, Initial residual = 0.00237865, Final residual = 0.000185504, No Iterations 4
smoothSolver:  Solving for Uy, Initial residual = 0.00271669, Final residual = 0.000186297, No Iterations 4
GAMG:  Solving for p, Initial residual = 0.274517, Final residual = 0.0255335, No Iterations 5
time step continuity errors : sum local = 6.19131e-09, global = -1.53776e-19, cumulative = 1.10916e-19
ExecutionTime = 11.2 s  ClockTime = 11 s

forces forces write:
    sum of forces:
        pressure : (4.40736e-08 4.67762e-07 1.98331e-26)
        viscous  : (1.52793e-05 -1.166e-07 -1.27376e-26)
        porous   : (0 0 0)
    sum of moments:
        pressure : (-7.01643e-08 6.61104e-09 -6.93411e-08)
        viscous  : (1.749e-08 2.2919e-06 -7.18721e-07)
        porous   : (0 0 0)

Time = 50

smoothSolver:  Solving for Ux, Initial residual = 0.00232225, Final residual = 0.000181307, No Iterations 4
smoothSolver:  Solving for Uy, Initial residual = 0.00275166, Final residual = 0.000189655, No Iterations 4
GAMG:  Solving for p, Initial residual = 0.257804, Final residual = 0.0174718, No Iterations 5
time step continuity errors : sum local = 4.16001e-09, global = 1.39864e-19, cumulative = 2.5078e-19
ExecutionTime = 11.38 s  ClockTime = 12 s

forces forces write:
    sum of forces:
        pressure : (4.2137e-08 4.50724e-07 4.60516e-26)
        viscous  : (1.50352e-05 -1.14678e-07 -1.83846e-26)
        porous   : (0 0 0)
    sum of moments:
        pressure : (-6.76086e-08 6.32055e-09 -7.27792e-08)
        viscous  : (1.72016e-08 2.25528e-06 -7.07304e-07)
        porous   : (0 0 0)

Time = 51

smoothSolver:  Solving for Ux, Initial residual = 0.0022709, Final residual = 0.000177375, No Iterations 4
smoothSolver:  Solving for Uy, Initial residual = 0.00275244, Final residual = 0.000190491, No Iterations 4
GAMG:  Solving for p, Initial residual = 0.242098, Final residual = 0.0226585, No Iterations 3
time step continuity errors : sum local = 5.34734e-09, global = 9.73375e-20, cumulative = 3.48118e-19
ExecutionTime = 11.55 s  ClockTime = 12 s

forces forces write:
    sum of forces:
        pressure : (4.85254e-08 4.60225e-07 4.6799e-26)
        viscous  : (1.47987e-05 -1.12605e-07 -1.84667e-26)
        porous   : (0 0 0)
    sum of moments:
        pressure : (-6.90337e-08 7.27881e-09 -6.93408e-08)
        viscous  : (1.68908e-08 2.21981e-06 -6.96168e-07)
        porous   : (0 0 0)

Time = 52

smoothSolver:  Solving for Ux, Initial residual = 0.00222526, Final residual = 0.000173892, No Iterations 4
smoothSolver:  Solving for Uy, Initial residual = 0.00270518, Final residual = 0.000187209, No Iterations 4
GAMG:  Solving for p, Initial residual = 0.227459, Final residual = 0.00957282, No Iterations 6
time step continuity errors : sum local = 2.22485e-09, global = 8.22175e-20, cumulative = 4.30335e-19
ExecutionTime = 11.75 s  ClockTime = 12 s

forces forces write:
    sum of forces:
        pressure : (7.09747e-08 4.87056e-07 7.03267e-26)
        viscous  : (1.45694e-05 -1.1064e-07 -2.35828e-26)
        porous   : (0 0 0)
    sum of moments:
        pressure : (-7.30584e-08 1.06462e-08 -6.1795e-08)
        viscous  : (1.6596e-08 2.1854e-06 -6.85352e-07)
        porous   : (0 0 0)

Time = 53

smoothSolver:  Solving for Ux, Initial residual = 0.00218315, Final residual = 0.000170697, No Iterations 4
smoothSolver:  Solving for Uy, Initial residual = 0.00262351, Final residual = 0.000181414, No Iterations 4
GAMG:  Solving for p, Initial residual = 0.210285, Final residual = 0.0185926, No Iterations 5
time step continuity errors : sum local = 4.26062e-09, global = -4.25887e-20, cumulative = 3.87747e-19
ExecutionTime = 11.94 s  ClockTime = 12 s

forces forces write:
    sum of forces:
        pressure : (7.65414e-08 4.99727e-07 7.09092e-26)
        viscous  : (1.43464e-05 -1.08922e-07 -2.37035e-26)
        porous   : (0 0 0)
    sum of moments:
        pressure : (-7.4959e-08 1.14812e-08 -5.94893e-08)
        viscous  : (1.63382e-08 2.15196e-06 -6.74914e-07)
        porous   : (0 0 0)

Time = 54

smoothSolver:  Solving for Ux, Initial residual = 0.00214151, Final residual = 0.000167457, No Iterations 4
smoothSolver:  Solving for Uy, Initial residual = 0.0025856, Final residual = 0.00017867, No Iterations 4
GAMG:  Solving for p, Initial residual = 0.199267, Final residual = 0.0177452, No Iterations 5
time step continuity errors : sum local = 4.01172e-09, global = -4.94933e-20, cumulative = 3.38253e-19
ExecutionTime = 12.13 s  ClockTime = 12 s

forces forces write:
    sum of forces:
        pressure : (6.93857e-08 4.93172e-07 7.02061e-26)
        viscous  : (1.413e-05 -1.07353e-07 -2.35682e-26)
        porous   : (0 0 0)
    sum of moments:
        pressure : (-7.39758e-08 1.04079e-08 -6.30448e-08)
        viscous  : (1.6103e-08 2.1195e-06 -6.64839e-07)
        porous   : (0 0 0)

Time = 55

smoothSolver:  Solving for Ux, Initial residual = 0.00209961, Final residual = 0.00016419, No Iterations 4
smoothSolver:  Solving for Uy, Initial residual = 0.00257107, Final residual = 0.000177621, No Iterations 4
GAMG:  Solving for p, Initial residual = 0.188675, Final residual = 0.0136217, No Iterations 6
time step continuity errors : sum local = 3.05731e-09, global = -9.31096e-20, cumulative = 2.45144e-19
ExecutionTime = 12.32 s  ClockTime = 13 s

forces forces write:
    sum of forces:
        pressure : (5.94503e-08 4.8126e-07 6.92607e-26)
        viscous  : (1.39199e-05 -1.05772e-07 -2.33784e-26)
        porous   : (0 0 0)
    sum of moments:
        pressure : (-7.21889e-08 8.91754e-09 -6.76457e-08)
        viscous  : (1.58657e-08 2.08799e-06 -6.5507e-07)
        porous   : (0 0 0)

Time = 56

smoothSolver:  Solving for Ux, Initial residual = 0.00205829, Final residual = 0.000160986, No Iterations 4
smoothSolver:  Solving for Uy, Initial residual = 0.00257267, Final residual = 0.000177866, No Iterations 4
GAMG:  Solving for p, Initial residual = 0.177506, Final residual = 0.00580067, No Iterations 6
time step continuity errors : sum local = 1.29154e-09, global = 4.84701e-20, cumulative = 2.93614e-19
ExecutionTime = 12.53 s  ClockTime = 13 s

forces forces write:
    sum of forces:
        pressure : (5.20217e-08 4.78417e-07 5.54061e-26)
        viscous  : (1.37162e-05 -1.04126e-07 -2.03274e-26)
        porous   : (0 0 0)
    sum of moments:
        pressure : (-7.17626e-08 7.80326e-09 -6.89325e-08)
        viscous  : (1.56189e-08 2.05743e-06 -6.45551e-07)
        porous   : (0 0 0)

Time = 57

smoothSolver:  Solving for Ux, Initial residual = 0.00201843, Final residual = 0.000157913, No Iterations 4
smoothSolver:  Solving for Uy, Initial residual = 0.00256136, Final residual = 0.000177393, No Iterations 4
GAMG:  Solving for p, Initial residual = 0.167464, Final residual = 0.0150938, No Iterations 3
time step continuity errors : sum local = 3.32574e-09, global = -2.97169e-20, cumulative = 2.63897e-19
ExecutionTime = 12.69 s  ClockTime = 13 s

forces forces write:
    sum of forces:
        pressure : (5.49675e-08 4.8433e-07 5.57845e-26)
        viscous  : (1.35185e-05 -1.02485e-07 -2.04126e-26)
        porous   : (0 0 0)
    sum of moments:
        pressure : (-7.26495e-08 8.24512e-09 -6.74905e-08)
        viscous  : (1.53727e-08 2.02778e-06 -6.36272e-07)
        porous   : (0 0 0)

Time = 58

smoothSolver:  Solving for Ux, Initial residual = 0.0019812, Final residual = 0.000155046, No Iterations 4
smoothSolver:  Solving for Uy, Initial residual = 0.00252672, Final residual = 0.000175052, No Iterations 4
GAMG:  Solving for p, Initial residual = 0.158638, Final residual = 0.00577254, No Iterations 6
time step continuity errors : sum local = 1.25829e-09, global = 1.47948e-19, cumulative = 4.11845e-19
ExecutionTime = 12.89 s  ClockTime = 13 s

forces forces write:
    sum of forces:
        pressure : (5.90946e-08 4.96077e-07 4.89314e-26)
        viscous  : (1.33265e-05 -1.0093e-07 -1.88712e-26)
        porous   : (0 0 0)
    sum of moments:
        pressure : (-7.44115e-08 8.86418e-09 -6.46495e-08)
        viscous  : (1.51395e-08 1.99897e-06 -6.27244e-07)
        porous   : (0 0 0)

Time = 59

smoothSolver:  Solving for Ux, Initial residual = 0.00194572, Final residual = 0.000152303, No Iterations 4
smoothSolver:  Solving for Uy, Initial residual = 0.00248046, Final residual = 0.000172018, No Iterations 4
GAMG:  Solving for p, Initial residual = 0.146212, Final residual = 0.00358764, No Iterations 6
time step continuity errors : sum local = 7.74181e-10, global = 1.5264e-19, cumulative = 5.64485e-19
ExecutionTime = 13.09 s  ClockTime = 13 s

forces forces write:
    sum of forces:
        pressure : (6.10678e-08 5.00685e-07 4.91712e-26)
        viscous  : (1.31399e-05 -9.94956e-08 -1.88946e-26)
        porous   : (0 0 0)
    sum of moments:
        pressure : (-7.51028e-08 9.16017e-09 -6.40664e-08)
        viscous  : (1.49243e-08 1.97098e-06 -6.18482e-07)
        porous   : (0 0 0)

Time = 60

smoothSolver:  Solving for Ux, Initial residual = 0.00191089, Final residual = 0.000149601, No Iterations 4
smoothSolver:  Solving for Uy, Initial residual = 0.00244666, Final residual = 0.000169794, No Iterations 4
GAMG:  Solving for p, Initial residual = 0.137203, Final residual = 0.00893682, No Iterations 5
time step continuity errors : sum local = 1.91465e-09, global = -4.22597e-20, cumulative = 5.22225e-19
ExecutionTime = 13.28 s  ClockTime = 13 s

forces forces write:
    sum of forces:
        pressure : (5.84575e-08 4.97871e-07 4.88744e-26)
        viscous  : (1.29583e-05 -9.81242e-08 -1.88143e-26)
        porous   : (0 0 0)
    sum of moments:
        pressure : (-7.46807e-08 8.76862e-09 -6.56705e-08)
        viscous  : (1.47186e-08 1.94375e-06 -6.09972e-07)
        porous   : (0 0 0)

Time = 61

smoothSolver:  Solving for Ux, Initial residual = 0.00187689, Final residual = 0.000146948, No Iterations 4
smoothSolver:  Solving for Uy, Initial residual = 0.00242974, Final residual = 0.000168692, No Iterations 4
GAMG:  Solving for p, Initial residual = 0.129278, Final residual = 0.00484995, No Iterations 5
time step continuity errors : sum local = 1.03381e-09, global = 2.05277e-19, cumulative = 7.27502e-19
ExecutionTime = 13.47 s  ClockTime = 14 s

forces forces write:
    sum of forces:
        pressure : (5.74123e-08 4.94206e-07 5.52518e-26)
        viscous  : (1.27816e-05 -9.67543e-08 -2.02216e-26)
        porous   : (0 0 0)
    sum of moments:
        pressure : (-7.41309e-08 8.61184e-09 -6.75049e-08)
        viscous  : (1.45131e-08 1.91723e-06 -6.01688e-07)
        porous   : (0 0 0)

Time = 62

smoothSolver:  Solving for Ux, Initial residual = 0.00184394, Final residual = 0.000144377, No Iterations 4
smoothSolver:  Solving for Uy, Initial residual = 0.00241707, Final residual = 0.000167887, No Iterations 4
GAMG:  Solving for p, Initial residual = 0.121983, Final residual = 0.0116844, No Iterations 5
time step continuity errors : sum local = 2.48224e-09, global = -3.22193e-20, cumulative = 6.95283e-19
ExecutionTime = 13.66 s  ClockTime = 14 s

forces forces write:
    sum of forces:
        pressure : (5.69971e-08 4.95059e-07 5.51913e-26)
        viscous  : (1.26094e-05 -9.5375e-08 -2.02109e-26)
        porous   : (0 0 0)
    sum of moments:
        pressure : (-7.42588e-08 8.54957e-09 -6.78912e-08)
        viscous  : (1.43062e-08 1.89141e-06 -5.9361e-07)
        porous   : (0 0 0)

Time = 63

smoothSolver:  Solving for Ux, Initial residual = 0.00181243, Final residual = 0.000141908, No Iterations 4
smoothSolver:  Solving for Uy, Initial residual = 0.00239851, Final residual = 0.000166672, No Iterations 4
GAMG:  Solving for p, Initial residual = 0.115355, Final residual = 0.00865931, No Iterations 5
time step continuity errors : sum local = 1.83378e-09, global = 1.59308e-19, cumulative = 8.54591e-19
ExecutionTime = 13.84 s  ClockTime = 14 s

forces forces write:
    sum of forces:
        pressure : (5.88841e-08 4.99866e-07 5.54308e-26)
        viscous  : (1.24416e-05 -9.40193e-08 -2.02562e-26)
        porous   : (0 0 0)
    sum of moments:
        pressure : (-7.498e-08 8.83261e-09 -6.71179e-08)
        viscous  : (1.41029e-08 1.86625e-06 -5.85734e-07)
        porous   : (0 0 0)

Time = 64

smoothSolver:  Solving for Ux, Initial residual = 0.00178186, Final residual = 0.000139526, No Iterations 4
smoothSolver:  Solving for Uy, Initial residual = 0.00237289, Final residual = 0.000165008, No Iterations 4
GAMG:  Solving for p, Initial residual = 0.108815, Final residual = 0.0100689, No Iterations 3
time step continuity errors : sum local = 2.11797e-09, global = -2.23075e-20, cumulative = 8.32284e-19
ExecutionTime = 14.01 s  ClockTime = 14 s

forces forces write:
    sum of forces:
        pressure : (6.03326e-08 5.03361e-07 5.56303e-26)
        viscous  : (1.22781e-05 -9.27163e-08 -2.02923e-26)
        porous   : (0 0 0)
    sum of moments:
        pressure : (-7.55041e-08 9.04989e-09 -6.65187e-08)
        viscous  : (1.39074e-08 1.84172e-06 -5.78059e-07)
        porous   : (0 0 0)

Time = 65

smoothSolver:  Solving for Ux, Initial residual = 0.00175198, Final residual = 0.000137206, No Iterations 4
smoothSolver:  Solving for Uy, Initial residual = 0.00234824, Final residual = 0.000163325, No Iterations 4
GAMG:  Solving for p, Initial residual = 0.10253, Final residual = 0.0101818, No Iterations 4
time step continuity errors : sum local = 2.12671e-09, global = -1.45502e-19, cumulative = 6.86782e-19
ExecutionTime = 14.19 s  ClockTime = 14 s

forces forces write:
    sum of forces:
        pressure : (6.0898e-08 5.06349e-07 5.57873e-26)
        viscous  : (1.21186e-05 -9.14643e-08 -2.02917e-26)
        porous   : (0 0 0)
    sum of moments:
        pressure : (-7.59524e-08 9.1347e-09 -6.64455e-08)
        viscous  : (1.37196e-08 1.81779e-06 -5.70583e-07)
        porous   : (0 0 0)

Time = 66

smoothSolver:  Solving for Ux, Initial residual = 0.00172301, Final residual = 0.000134945, No Iterations 4
smoothSolver:  Solving for Uy, Initial residual = 0.00232399, Final residual = 0.000161884, No Iterations 4
GAMG:  Solving for p, Initial residual = 0.0957203, Final residual = 0.00667235, No Iterations 5
time step continuity errors : sum local = 1.38747e-09, global = -3.53812e-20, cumulative = 6.51401e-19
ExecutionTime = 14.37 s  ClockTime = 15 s

forces forces write:
    sum of forces:
        pressure : (6.01015e-08 5.07066e-07 5.57704e-26)
        viscous  : (1.19631e-05 -9.0249e-08 -2.02577e-26)
        porous   : (0 0 0)
    sum of moments:
        pressure : (-7.60599e-08 9.01523e-09 -6.70302e-08)
        viscous  : (1.35373e-08 1.79446e-06 -5.63296e-07)
        porous   : (0 0 0)

Time = 67

smoothSolver:  Solving for Ux, Initial residual = 0.00169471, Final residual = 0.000132738, No Iterations 4
smoothSolver:  Solving for Uy, Initial residual = 0.00230267, Final residual = 0.000160677, No Iterations 4
GAMG:  Solving for p, Initial residual = 0.0894667, Final residual = 0.00413468, No Iterations 5
time step continuity errors : sum local = 8.57394e-10, global = -2.19032e-20, cumulative = 6.29498e-19
ExecutionTime = 14.56 s  ClockTime = 15 s

forces forces write:
    sum of forces:
        pressure : (5.90446e-08 5.07013e-07 5.56662e-26)
        viscous  : (1.18113e-05 -8.90505e-08 -2.02299e-26)
        porous   : (0 0 0)
    sum of moments:
        pressure : (-7.6052e-08 8.85669e-09 -6.76675e-08)
        viscous  : (1.33576e-08 1.77169e-06 -5.56185e-07)
        porous   : (0 0 0)

Time = 68

smoothSolver:  Solving for Ux, Initial residual = 0.0016674, Final residual = 0.000130596, No Iterations 4
smoothSolver:  Solving for Uy, Initial residual = 0.00228401, Final residual = 0.000159475, No Iterations 4
GAMG:  Solving for p, Initial residual = 0.0841932, Final residual = 0.0038955, No Iterations 5
time step continuity errors : sum local = 8.05047e-10, global = -5.86531e-20, cumulative = 5.70844e-19
ExecutionTime = 14.75 s  ClockTime = 15 s

forces forces write:
    sum of forces:
        pressure : (5.8741e-08 5.08012e-07 5.56138e-26)
        viscous  : (1.16632e-05 -8.7866e-08 -2.02269e-26)
        porous   : (0 0 0)
    sum of moments:
        pressure : (-7.62019e-08 8.81116e-09 -6.79052e-08)
        viscous  : (1.31799e-08 1.74948e-06 -5.49239e-07)
        porous   : (0 0 0)

Time = 69

smoothSolver:  Solving for Ux, Initial residual = 0.00164109, Final residual = 0.000128523, No Iterations 4
smoothSolver:  Solving for Uy, Initial residual = 0.00226537, Final residual = 0.00015815, No Iterations 4
GAMG:  Solving for p, Initial residual = 0.0789285, Final residual = 0.00706775, No Iterations 4
time step continuity errors : sum local = 1.45398e-09, global = -6.50104e-20, cumulative = 5.05834e-19
ExecutionTime = 14.93 s  ClockTime = 15 s

forces forces write:
    sum of forces:
        pressure : (5.91193e-08 5.1003e-07 5.56521e-26)
        viscous  : (1.15186e-05 -8.67061e-08 -2.02375e-26)
        porous   : (0 0 0)
    sum of moments:
        pressure : (-7.65045e-08 8.86789e-09 -6.783e-08)
        viscous  : (1.30059e-08 1.72779e-06 -5.42454e-07)
        porous   : (0 0 0)

Time = 70

smoothSolver:  Solving for Ux, Initial residual = 0.00161542, Final residual = 0.000126507, No Iterations 4
smoothSolver:  Solving for Uy, Initial residual = 0.00224508, Final residual = 0.000156773, No Iterations 4
GAMG:  Solving for p, Initial residual = 0.0743584, Final residual = 0.00664453, No Iterations 4
time step continuity errors : sum local = 1.36285e-09, global = -3.74948e-20, cumulative = 4.68339e-19
ExecutionTime = 15.1 s  ClockTime = 15 s

forces forces write:
    sum of forces:
        pressure : (5.95794e-08 5.12413e-07 5.57432e-26)
        viscous  : (1.13774e-05 -8.55803e-08 -2.02397e-26)
        porous   : (0 0 0)
    sum of moments:
        pressure : (-7.6862e-08 8.93691e-09 -6.76953e-08)
        viscous  : (1.2837e-08 1.70661e-06 -5.35829e-07)
        porous   : (0 0 0)

Time = 71

smoothSolver:  Solving for Ux, Initial residual = 0.00159045, Final residual = 0.000124544, No Iterations 4
smoothSolver:  Solving for Uy, Initial residual = 0.002224, Final residual = 0.000155441, No Iterations 4
GAMG:  Solving for p, Initial residual = 0.0708678, Final residual = 0.00648532, No Iterations 4
time step continuity errors : sum local = 1.32653e-09, global = 6.06891e-20, cumulative = 5.29028e-19
ExecutionTime = 15.29 s  ClockTime = 15 s

forces forces write:
    sum of forces:
        pressure : (5.96381e-08 5.14357e-07 5.58275e-26)
        viscous  : (1.12394e-05 -8.44878e-08 -2.02289e-26)
        porous   : (0 0 0)
    sum of moments:
        pressure : (-7.71535e-08 8.94572e-09 -6.7746e-08)
        viscous  : (1.26732e-08 1.68592e-06 -5.29358e-07)
        porous   : (0 0 0)

Time = 72

smoothSolver:  Solving for Ux, Initial residual = 0.00156605, Final residual = 0.00012263, No Iterations 4
smoothSolver:  Solving for Uy, Initial residual = 0.00220343, Final residual = 0.000154227, No Iterations 4
GAMG:  Solving for p, Initial residual = 0.0670069, Final residual = 0.00356451, No Iterations 5
time step continuity errors : sum local = 7.27995e-10, global = -3.13387e-20, cumulative = 4.9769e-19
ExecutionTime = 15.49 s  ClockTime = 16 s

forces forces write:
    sum of forces:
        pressure : (5.93655e-08 5.15864e-07 5.58805e-26)
        viscous  : (1.11046e-05 -8.34209e-08 -2.02175e-26)
        porous   : (0 0 0)
    sum of moments:
        pressure : (-7.73796e-08 8.90482e-09 -6.79833e-08)
        viscous  : (1.25131e-08 1.66569e-06 -5.23036e-07)
        porous   : (0 0 0)

Time = 73

smoothSolver:  Solving for Ux, Initial residual = 0.00154224, Final residual = 0.000120764, No Iterations 4
smoothSolver:  Solving for Uy, Initial residual = 0.00218371, Final residual = 0.000153061, No Iterations 4
GAMG:  Solving for p, Initial residual = 0.0622847, Final residual = 0.00328303, No Iterations 5
time step continuity errors : sum local = 6.68893e-10, global = 3.59602e-20, cumulative = 5.3365e-19
ExecutionTime = 15.68 s  ClockTime = 16 s

forces forces write:
    sum of forces:
        pressure : (5.90728e-08 5.17027e-07 5.58933e-26)
        viscous  : (1.09728e-05 -8.23722e-08 -2.02171e-26)
        porous   : (0 0 0)
    sum of moments:
        pressure : (-7.7554e-08 8.86092e-09 -6.826e-08)
        viscous  : (1.23558e-08 1.64593e-06 -5.16854e-07)
        porous   : (0 0 0)

Time = 74

smoothSolver:  Solving for Ux, Initial residual = 0.0015191, Final residual = 0.000118947, No Iterations 4
smoothSolver:  Solving for Uy, Initial residual = 0.00216538, Final residual = 0.00015188, No Iterations 4
GAMG:  Solving for p, Initial residual = 0.058611, Final residual = 0.00573349, No Iterations 4
time step continuity errors : sum local = 1.16491e-09, global = -2.10238e-20, cumulative = 5.12626e-19
ExecutionTime = 15.86 s  ClockTime = 16 s

forces forces write:
    sum of forces:
        pressure : (5.90066e-08 5.18231e-07 5.58929e-26)
        viscous  : (1.0844e-05 -8.13413e-08 -2.02237e-26)
        porous   : (0 0 0)
    sum of moments:
        pressure : (-7.77347e-08 8.851e-09 -6.84458e-08)
        viscous  : (1.22012e-08 1.6266e-06 -5.10806e-07)
        porous   : (0 0 0)

Time = 75

smoothSolver:  Solving for Ux, Initial residual = 0.00149661, Final residual = 0.000117178, No Iterations 4
smoothSolver:  Solving for Uy, Initial residual = 0.00214756, Final residual = 0.000150688, No Iterations 4
GAMG:  Solving for p, Initial residual = 0.0556105, Final residual = 0.00535548, No Iterations 4
time step continuity errors : sum local = 1.08711e-09, global = 8.14237e-20, cumulative = 5.9405e-19
ExecutionTime = 16.03 s  ClockTime = 16 s

forces forces write:
    sum of forces:
        pressure : (5.91486e-08 5.19686e-07 5.59028e-26)
        viscous  : (1.0718e-05 -8.03316e-08 -2.02233e-26)
        porous   : (0 0 0)
    sum of moments:
        pressure : (-7.79529e-08 8.87229e-09 -6.85206e-08)
        viscous  : (1.20497e-08 1.60769e-06 -5.0489e-07)
        porous   : (0 0 0)

Time = 76

smoothSolver:  Solving for Ux, Initial residual = 0.0014748, Final residual = 0.000115455, No Iterations 4
smoothSolver:  Solving for Uy, Initial residual = 0.00212902, Final residual = 0.000149482, No Iterations 4
GAMG:  Solving for p, Initial residual = 0.0529784, Final residual = 0.00518109, No Iterations 4
time step continuity errors : sum local = 1.05074e-09, global = 5.28803e-20, cumulative = 6.4693e-19
ExecutionTime = 16.21 s  ClockTime = 16 s

forces forces write:
    sum of forces:
        pressure : (5.9289e-08 5.21272e-07 5.59278e-26)
        viscous  : (1.05946e-05 -7.93458e-08 -2.02111e-26)
        porous   : (0 0 0)
    sum of moments:
        pressure : (-7.81909e-08 8.89335e-09 -6.85621e-08)
        viscous  : (1.19019e-08 1.5892e-06 -4.99102e-07)
        porous   : (0 0 0)

Time = 77

smoothSolver:  Solving for Ux, Initial residual = 0.00145355, Final residual = 0.000113776, No Iterations 4
smoothSolver:  Solving for Uy, Initial residual = 0.00211, Final residual = 0.000148308, No Iterations 4
GAMG:  Solving for p, Initial residual = 0.0503208, Final residual = 0.00263031, No Iterations 5
time step continuity errors : sum local = 5.33662e-10, global = 5.00028e-20, cumulative = 6.96933e-19
ExecutionTime = 16.41 s  ClockTime = 17 s

forces forces write:
    sum of forces:
        pressure : (5.93073e-08 5.22932e-07 5.5966e-26)
        viscous  : (1.0474e-05 -7.83826e-08 -2.01943e-26)
        porous   : (0 0 0)
    sum of moments:
        pressure : (-7.84398e-08 8.8961e-09 -6.86491e-08)
        viscous  : (1.17574e-08 1.57109e-06 -4.93438e-07)
        porous   : (0 0 0)

Time = 78

smoothSolver:  Solving for Ux, Initial residual = 0.00143279, Final residual = 0.000112138, No Iterations 4
smoothSolver:  Solving for Uy, Initial residual = 0.00209123, Final residual = 0.000147181, No Iterations 4
GAMG:  Solving for p, Initial residual = 0.0469039, Final residual = 0.00247854, No Iterations 5
time step continuity errors : sum local = 5.02286e-10, global = -1.27693e-19, cumulative = 5.6924e-19
ExecutionTime = 16.6 s  ClockTime = 17 s

forces forces write:
    sum of forces:
        pressure : (5.92183e-08 5.24366e-07 5.60048e-26)
        viscous  : (1.03558e-05 -7.74388e-08 -2.01865e-26)
        porous   : (0 0 0)
    sum of moments:
        pressure : (-7.86549e-08 8.88275e-09 -6.87954e-08)
        viscous  : (1.16158e-08 1.55337e-06 -4.87894e-07)
        porous   : (0 0 0)

Time = 79

smoothSolver:  Solving for Ux, Initial residual = 0.00141243, Final residual = 0.000110537, No Iterations 4
smoothSolver:  Solving for Uy, Initial residual = 0.0020736, Final residual = 0.000146091, No Iterations 4
GAMG:  Solving for p, Initial residual = 0.0442058, Final residual = 0.00238563, No Iterations 5
time step continuity errors : sum local = 4.82864e-10, global = -1.00426e-19, cumulative = 4.68814e-19
ExecutionTime = 16.79 s  ClockTime = 17 s

forces forces write:
    sum of forces:
        pressure : (5.91441e-08 5.25645e-07 5.6039e-26)
        viscous  : (1.02401e-05 -7.65121e-08 -2.01892e-26)
        porous   : (0 0 0)
    sum of moments:
        pressure : (-7.88468e-08 8.87161e-09 -6.89548e-08)
        viscous  : (1.14768e-08 1.53602e-06 -4.82464e-07)
        porous   : (0 0 0)

Time = 80

smoothSolver:  Solving for Ux, Initial residual = 0.00139253, Final residual = 0.000108974, No Iterations 4
smoothSolver:  Solving for Uy, Initial residual = 0.0020567, Final residual = 0.000145006, No Iterations 4
GAMG:  Solving for p, Initial residual = 0.0417871, Final residual = 0.0039285, No Iterations 4
time step continuity errors : sum local = 7.93505e-10, global = -1.68533e-19, cumulative = 3.00281e-19
ExecutionTime = 16.97 s  ClockTime = 17 s

forces forces write:
    sum of forces:
        pressure : (5.91325e-08 5.26845e-07 5.6064e-26)
        viscous  : (1.01268e-05 -7.56023e-08 -2.01943e-26)
        porous   : (0 0 0)
    sum of moments:
        pressure : (-7.90268e-08 8.86988e-09 -6.90948e-08)
        viscous  : (1.13404e-08 1.51903e-06 -4.77145e-07)
        porous   : (0 0 0)

Time = 81

smoothSolver:  Solving for Ux, Initial residual = 0.00137314, Final residual = 0.000107449, No Iterations 4
smoothSolver:  Solving for Uy, Initial residual = 0.00203994, Final residual = 0.000143929, No Iterations 4
GAMG:  Solving for p, Initial residual = 0.0400393, Final residual = 0.00205157, No Iterations 5
time step continuity errors : sum local = 4.14963e-10, global = 3.92292e-20, cumulative = 3.3951e-19
ExecutionTime = 17.15 s  ClockTime = 17 s

forces forces write:
    sum of forces:
        pressure : (5.9197e-08 5.28255e-07 5.60894e-26)
        viscous  : (1.00158e-05 -7.47104e-08 -2.01927e-26)
        porous   : (0 0 0)
    sum of moments:
        pressure : (-7.92382e-08 8.87955e-09 -6.91877e-08)
        viscous  : (1.12066e-08 1.50238e-06 -4.71934e-07)
        porous   : (0 0 0)

Time = 82

smoothSolver:  Solving for Ux, Initial residual = 0.00135434, Final residual = 0.000105961, No Iterations 4
smoothSolver:  Solving for Uy, Initial residual = 0.00202243, Final residual = 0.000142836, No Iterations 4
GAMG:  Solving for p, Initial residual = 0.0377905, Final residual = 0.00193377, No Iterations 5
time step continuity errors : sum local = 3.9095e-10, global = 8.18613e-21, cumulative = 3.47696e-19
ExecutionTime = 17.35 s  ClockTime = 18 s

forces forces write:
    sum of forces:
        pressure : (5.92388e-08 5.29677e-07 5.61107e-26)
        viscous  : (9.90707e-06 -7.38365e-08 -2.01833e-26)
        porous   : (0 0 0)
    sum of moments:
        pressure : (-7.94515e-08 8.88583e-09 -6.92707e-08)
        viscous  : (1.10755e-08 1.48606e-06 -4.66828e-07)
        porous   : (0 0 0)

Time = 83

smoothSolver:  Solving for Ux, Initial residual = 0.00133597, Final residual = 0.000104509, No Iterations 4
smoothSolver:  Solving for Uy, Initial residual = 0.00200518, Final residual = 0.000141768, No Iterations 4
GAMG:  Solving for p, Initial residual = 0.0355626, Final residual = 0.00189647, No Iterations 5
time step continuity errors : sum local = 3.83133e-10, global = 6.95398e-20, cumulative = 4.17236e-19
ExecutionTime = 17.54 s  ClockTime = 18 s

forces forces write:
    sum of forces:
        pressure : (5.92263e-08 5.31022e-07 5.61297e-26)
        viscous  : (9.80046e-06 -7.29797e-08 -2.01714e-26)
        porous   : (0 0 0)
    sum of moments:
        pressure : (-7.96533e-08 8.88394e-09 -6.93746e-08)
        viscous  : (1.0947e-08 1.47007e-06 -4.61823e-07)
        porous   : (0 0 0)

Time = 84

smoothSolver:  Solving for Ux, Initial residual = 0.00131795, Final residual = 0.000103089, No Iterations 4
smoothSolver:  Solving for Uy, Initial residual = 0.00198875, Final residual = 0.000140738, No Iterations 4
GAMG:  Solving for p, Initial residual = 0.033692, Final residual = 0.001542, No Iterations 5
time step continuity errors : sum local = 3.11547e-10, global = -1.07579e-19, cumulative = 3.09657e-19
ExecutionTime = 17.73 s  ClockTime = 18 s

forces forces write:
    sum of forces:
        pressure : (5.91852e-08 5.32261e-07 5.615e-26)
        viscous  : (9.69595e-06 -7.21387e-08 -2.01627e-26)
        porous   : (0 0 0)
    sum of moments:
        pressure : (-7.98392e-08 8.87778e-09 -6.95019e-08)
        viscous  : (1.08208e-08 1.45439e-06 -4.56916e-07)
        porous   : (0 0 0)

Time = 85

smoothSolver:  Solving for Ux, Initial residual = 0.00130027, Final residual = 0.000101701, No Iterations 4
smoothSolver:  Solving for Uy, Initial residual = 0.001973, Final residual = 0.000139739, No Iterations 4
GAMG:  Solving for p, Initial residual = 0.0320197, Final residual = 0.00141069, No Iterations 5
time step continuity errors : sum local = 2.8495e-10, global = 8.02664e-20, cumulative = 3.89923e-19
ExecutionTime = 17.93 s  ClockTime = 18 s

forces forces write:
    sum of forces:
        pressure : (5.91607e-08 5.33477e-07 5.61748e-26)
        viscous  : (9.59347e-06 -7.13125e-08 -2.01587e-26)
        porous   : (0 0 0)
    sum of moments:
        pressure : (-8.00216e-08 8.87411e-09 -6.96295e-08)
        viscous  : (1.06969e-08 1.43902e-06 -4.52105e-07)
        porous   : (0 0 0)

Time = 86

smoothSolver:  Solving for Ux, Initial residual = 0.001283, Final residual = 0.000100343, No Iterations 4
smoothSolver:  Solving for Uy, Initial residual = 0.0019573, Final residual = 0.000138749, No Iterations 4
GAMG:  Solving for p, Initial residual = 0.0305176, Final residual = 0.00142403, No Iterations 5
time step continuity errors : sum local = 2.87542e-10, global = 8.70555e-22, cumulative = 3.90794e-19
ExecutionTime = 18.12 s  ClockTime = 18 s

forces forces write:
    sum of forces:
        pressure : (5.91663e-08 5.34726e-07 5.62034e-26)
        viscous  : (9.49295e-06 -7.0501e-08 -2.01574e-26)
        porous   : (0 0 0)
    sum of moments:
        pressure : (-8.02089e-08 8.87494e-09 -6.97393e-08)
        viscous  : (1.05751e-08 1.42394e-06 -4.47385e-07)
        porous   : (0 0 0)

Time = 87

