/*---------------------------------------------------------------------------*\
| =========                 |                                                 |
| \\      /  F ield         | OpenFOAM: The Open Source CFD Toolbox           |
|  \\    /   O peration     | Version:  5.x                                   |
|   \\  /    A nd           | Web:      www.OpenFOAM.org                      |
|    \\/     M anipulation  |                                                 |
\*---------------------------------------------------------------------------*/
Build  : 5.x-68e8507efb72
Exec   : simpleFoam
Date   : Jun 02 2022
Time   : 00:26:54
Host   : "Desktop-PC"
PID    : 18873
I/O    : uncollated
Case   : /home/emilio/code/flow-separation-prediction/openfoam/run/Airfoil2D_full
nProcs : 1
sigFpe : Enabling floating point exception trapping (FOAM_SIGFPE).
fileModificationChecking : Monitoring run-time modified files using timeStampMaster (fileModificationSkew 10)
allowSystemOperations : Allowing user-supplied system call operations

// * * * * * * * * * * * * * * * * * * * * * * * * * * * * * * * * * * * * * //
Create time

Create mesh for time = 0


SIMPLE: convergence criteria
    field p	 tolerance 1e-05
    field U	 tolerance 1e-07
    field nuTilda	 tolerance 1e-07

Reading field p

Reading field U

Reading/calculating face flux field phi

Selecting incompressible transport model Newtonian
Selecting turbulence model type laminar
Selecting laminar stress model Stokes
No MRF models present

No finite volume options present


Starting time loop

forces forces:
    Not including porosity effects
forces forceCoeffs:
    Not including porosity effects
forceCoeffs forceCoeffs:
    Not including porosity effects
Time = 1

smoothSolver:  Solving for Ux, Initial residual = 1, Final residual = 0.063415, No Iterations 2
smoothSolver:  Solving for Uy, Initial residual = 1, Final residual = 0.0699097, No Iterations 2
GAMG:  Solving for p, Initial residual = 1, Final residual = 0.0890105, No Iterations 14
time step continuity errors : sum local = 1.37969e-06, global = -4.9477e-19, cumulative = -4.9477e-19
ExecutionTime = 0.89 s  ClockTime = 1 s

forces forces write:
    sum of forces:
        pressure : (0.000934304 0.00636735 2.3162e-22)
        viscous  : (0.00100455 0.000375448 -6.68518e-23)
        porous   : (0 0 0)
    sum of moments:
        pressure : (-0.000955103 0.000140146 0.000187663)
        viscous  : (-5.63171e-05 0.000150682 -4.43809e-05)
        porous   : (0 0 0)

Time = 2

smoothSolver:  Solving for Ux, Initial residual = 0.351907, Final residual = 0.0113251, No Iterations 4
smoothSolver:  Solving for Uy, Initial residual = 0.410447, Final residual = 0.023908, No Iterations 4
GAMG:  Solving for p, Initial residual = 0.884214, Final residual = 0.0652428, No Iterations 9
time step continuity errors : sum local = 2.27548e-06, global = 5.57866e-19, cumulative = 6.30965e-20
ExecutionTime = 1.12 s  ClockTime = 1 s

forces forces write:
    sum of forces:
        pressure : (0.000615173 0.00458698 1.82667e-22)
        viscous  : (0.000559632 -7.93524e-06 -5.16338e-23)
        porous   : (0 0 0)
    sum of moments:
        pressure : (-0.000688048 9.22759e-05 0.000112731)
        viscous  : (1.19029e-06 8.39448e-05 -3.01569e-05)
        porous   : (0 0 0)

Time = 3

smoothSolver:  Solving for Ux, Initial residual = 0.13428, Final residual = 0.00411032, No Iterations 4
smoothSolver:  Solving for Uy, Initial residual = 0.114728, Final residual = 0.00662719, No Iterations 4
GAMG:  Solving for p, Initial residual = 0.779679, Final residual = 0.0443746, No Iterations 15
time step continuity errors : sum local = 1.76473e-06, global = 4.14135e-19, cumulative = 4.77231e-19
ExecutionTime = 1.4 s  ClockTime = 1 s

forces forces write:
    sum of forces:
        pressure : (-0.000167887 -0.000731028 -1.45396e-23)
        viscous  : (0.000368829 -0.000141385 4.88884e-24)
        porous   : (0 0 0)
    sum of moments:
        pressure : (0.000109654 -2.51831e-05 -5.15712e-05)
        viscous  : (2.12078e-05 5.53244e-05 -2.36904e-05)
        porous   : (0 0 0)

Time = 4

smoothSolver:  Solving for Ux, Initial residual = 0.0384334, Final residual = 0.00140962, No Iterations 4
smoothSolver:  Solving for Uy, Initial residual = 0.0224841, Final residual = 0.00127366, No Iterations 4
GAMG:  Solving for p, Initial residual = 0.865482, Final residual = 0.0716322, No Iterations 10
time step continuity errors : sum local = 2.67596e-06, global = 3.63466e-19, cumulative = 8.40698e-19
ExecutionTime = 1.61 s  ClockTime = 2 s

forces forces write:
    sum of forces:
        pressure : (-0.000516303 -0.00363209 -1.1482e-22)
        viscous  : (0.000287651 -9.64172e-05 3.43101e-23)
        porous   : (0 0 0)
    sum of moments:
        pressure : (0.000544814 -7.74454e-05 -0.00012358)
        viscous  : (1.44626e-05 4.31476e-05 -1.85761e-05)
        porous   : (0 0 0)

Time = 5

smoothSolver:  Solving for Ux, Initial residual = 0.0955849, Final residual = 0.00334146, No Iterations 4
smoothSolver:  Solving for Uy, Initial residual = 0.104636, Final residual = 0.00624348, No Iterations 4
GAMG:  Solving for p, Initial residual = 0.866673, Final residual = 0.0816527, No Iterations 8
time step continuity errors : sum local = 3.15487e-06, global = 2.32501e-19, cumulative = 1.0732e-18
ExecutionTime = 1.79 s  ClockTime = 2 s

forces forces write:
    sum of forces:
        pressure : (-0.000269325 -0.00229901 -7.80809e-23)
        viscous  : (0.000251054 3.51767e-06 2.31368e-23)
        porous   : (0 0 0)
    sum of moments:
        pressure : (0.000344851 -4.03988e-05 -6.57533e-05)
        viscous  : (-5.2765e-07 3.7658e-05 -1.40433e-05)
        porous   : (0 0 0)

Time = 6

smoothSolver:  Solving for Ux, Initial residual = 0.0957166, Final residual = 0.00255704, No Iterations 4
smoothSolver:  Solving for Uy, Initial residual = 0.115265, Final residual = 0.00620814, No Iterations 4
GAMG:  Solving for p, Initial residual = 0.77229, Final residual = 0.0535857, No Iterations 12
time step continuity errors : sum local = 1.93702e-06, global = 5.20889e-19, cumulative = 1.59409e-18
ExecutionTime = 2 s  ClockTime = 2 s

forces forces write:
    sum of forces:
        pressure : (0.000130231 0.000704988 -3.13675e-24)
        viscous  : (0.000225779 5.51239e-05 -9.97912e-25)
        porous   : (0 0 0)
    sum of moments:
        pressure : (-0.000105748 1.95346e-05 3.53643e-05)
        viscous  : (-8.26859e-06 3.38668e-05 -1.0958e-05)
        porous   : (0 0 0)

Time = 7

smoothSolver:  Solving for Ux, Initial residual = 0.0450765, Final residual = 0.001787, No Iterations 4
smoothSolver:  Solving for Uy, Initial residual = 0.0502317, Final residual = 0.00295635, No Iterations 4
GAMG:  Solving for p, Initial residual = 0.865021, Final residual = 0.0483387, No Iterations 12
time step continuity errors : sum local = 1.75778e-06, global = -4.38653e-19, cumulative = 1.15544e-18
ExecutionTime = 2.21 s  ClockTime = 2 s

forces forces write:
    sum of forces:
        pressure : (0.000266212 0.00210513 4.53932e-23)
        viscous  : (0.000200482 3.85461e-05 -1.563e-23)
        porous   : (0 0 0)
    sum of moments:
        pressure : (-0.00031577 3.99318e-05 7.05612e-05)
        viscous  : (-5.78191e-06 3.00722e-05 -9.64471e-06)
        porous   : (0 0 0)

Time = 8

smoothSolver:  Solving for Ux, Initial residual = 0.0640798, Final residual = 0.00220649, No Iterations 4
smoothSolver:  Solving for Uy, Initial residual = 0.0860313, Final residual = 0.00512676, No Iterations 4
GAMG:  Solving for p, Initial residual = 0.874852, Final residual = 0.0770048, No Iterations 8
time step continuity errors : sum local = 2.6339e-06, global = 4.37944e-19, cumulative = 1.59338e-18
ExecutionTime = 2.39 s  ClockTime = 2 s

forces forces write:
    sum of forces:
        pressure : (0.000105493 0.00116479 1.99769e-23)
        viscous  : (0.000176978 -2.5007e-06 -7.78501e-24)
        porous   : (0 0 0)
    sum of moments:
        pressure : (-0.000174718 1.58239e-05 2.53762e-05)
        viscous  : (3.75105e-07 2.65467e-05 -9.41808e-06)
        porous   : (0 0 0)

Time = 9

smoothSolver:  Solving for Ux, Initial residual = 0.0483869, Final residual = 0.00123577, No Iterations 4
smoothSolver:  Solving for Uy, Initial residual = 0.0426612, Final residual = 0.00210197, No Iterations 4
GAMG:  Solving for p, Initial residual = 0.798742, Final residual = 0.0780024, No Iterations 10
time step continuity errors : sum local = 2.44111e-06, global = 4.32999e-19, cumulative = 2.02638e-18
ExecutionTime = 2.59 s  ClockTime = 3 s

forces forces write:
    sum of forces:
        pressure : (-9.80621e-05 -0.000506564 -2.08161e-23)
        viscous  : (0.000159867 -2.23449e-05 5.63896e-24)
        porous   : (0 0 0)
    sum of moments:
        pressure : (7.59846e-05 -1.47093e-05 -3.63822e-05)
        viscous  : (3.35173e-06 2.398e-05 -9.27206e-06)
        porous   : (0 0 0)

Time = 10

smoothSolver:  Solving for Ux, Initial residual = 0.0245778, Final residual = 0.000868261, No Iterations 4
smoothSolver:  Solving for Uy, Initial residual = 0.0218884, Final residual = 0.00125276, No Iterations 4
GAMG:  Solving for p, Initial residual = 0.840867, Final residual = 0.0696067, No Iterations 11
time step continuity errors : sum local = 2.14186e-06, global = -5.58798e-19, cumulative = 1.46758e-18
ExecutionTime = 2.81 s  ClockTime = 3 s

forces forces write:
    sum of forces:
        pressure : (-0.000145268 -0.00115899 -3.49846e-23)
        viscous  : (0.000149486 -1.20979e-05 1.06564e-23)
        porous   : (0 0 0)
    sum of moments:
        pressure : (0.000173848 -2.17902e-05 -5.43628e-05)
        viscous  : (1.81469e-06 2.24228e-05 -8.6821e-06)
        porous   : (0 0 0)

Time = 11

smoothSolver:  Solving for Ux, Initial residual = 0.0347634, Final residual = 0.00109833, No Iterations 4
smoothSolver:  Solving for Uy, Initial residual = 0.0432627, Final residual = 0.00252144, No Iterations 4
GAMG:  Solving for p, Initial residual = 0.840625, Final residual = 0.08381, No Iterations 7
time step continuity errors : sum local = 2.38894e-06, global = 6.90723e-19, cumulative = 2.1583e-18
ExecutionTime = 2.97 s  ClockTime = 3 s

forces forces write:
    sum of forces:
        pressure : (-4.93886e-05 -0.000541418 -1.87668e-23)
        viscous  : (0.000142439 7.43707e-06 5.46161e-24)
        porous   : (0 0 0)
    sum of moments:
        pressure : (8.12127e-05 -7.4083e-06 -2.53173e-05)
        viscous  : (-1.11556e-06 2.13658e-05 -7.79314e-06)
        porous   : (0 0 0)

Time = 12

smoothSolver:  Solving for Ux, Initial residual = 0.0307172, Final residual = 0.00296137, No Iterations 2
smoothSolver:  Solving for Uy, Initial residual = 0.0302889, Final residual = 0.00135983, No Iterations 4
GAMG:  Solving for p, Initial residual = 0.788679, Final residual = 0.0667647, No Iterations 8
time step continuity errors : sum local = 1.65707e-06, global = 4.99695e-19, cumulative = 2.658e-18
ExecutionTime = 3.16 s  ClockTime = 3 s

forces forces write:
    sum of forces:
        pressure : (5.39235e-05 0.000370239 3.18722e-24)
        viscous  : (0.000136064 1.53151e-05 -1.85005e-24)
        porous   : (0 0 0)
    sum of moments:
        pressure : (-5.55359e-05 8.08852e-06 1.23607e-05)
        viscous  : (-2.29727e-06 2.04097e-05 -7.0721e-06)
        porous   : (0 0 0)

Time = 13

smoothSolver:  Solving for Ux, Initial residual = 0.0198356, Final residual = 0.000778708, No Iterations 4
smoothSolver:  Solving for Uy, Initial residual = 0.0209905, Final residual = 0.00120002, No Iterations 4
GAMG:  Solving for p, Initial residual = 0.845259, Final residual = 0.0831909, No Iterations 8
time step continuity errors : sum local = 2.00497e-06, global = -5.27691e-19, cumulative = 2.13031e-18
ExecutionTime = 3.34 s  ClockTime = 3 s

forces forces write:
    sum of forces:
        pressure : (7.02812e-05 0.000652745 9.06404e-24)
        viscous  : (0.000127966 8.84647e-06 -3.81842e-24)
        porous   : (0 0 0)
    sum of moments:
        pressure : (-9.79117e-05 1.05422e-05 2.26612e-05)
        viscous  : (-1.32697e-06 1.91949e-05 -6.6752e-06)
        porous   : (0 0 0)

Time = 14

smoothSolver:  Solving for Ux, Initial residual = 0.0231701, Final residual = 0.00079109, No Iterations 4
smoothSolver:  Solving for Uy, Initial residual = 0.0267917, Final residual = 0.00152711, No Iterations 4
GAMG:  Solving for p, Initial residual = 0.843122, Final residual = 0.0742124, No Iterations 9
time step continuity errors : sum local = 1.69206e-06, global = 3.00299e-19, cumulative = 2.43061e-18
ExecutionTime = 3.54 s  ClockTime = 3 s

forces forces write:
    sum of forces:
        pressure : (1.52927e-05 0.000264186 -9.66217e-25)
        viscous  : (0.00012015 -9.49465e-07 -4.72078e-25)
        porous   : (0 0 0)
    sum of moments:
        pressure : (-3.96279e-05 2.2939e-06 5.53938e-06)
        viscous  : (1.4242e-07 1.80226e-05 -6.52467e-06)
        porous   : (0 0 0)

Time = 15

smoothSolver:  Solving for Ux, Initial residual = 0.0196973, Final residual = 0.000525635, No Iterations 4
smoothSolver:  Solving for Uy, Initial residual = 0.0142229, Final residual = 0.000540746, No Iterations 4
GAMG:  Solving for p, Initial residual = 0.782735, Final residual = 0.0519996, No Iterations 8
time step continuity errors : sum local = 9.97324e-07, global = -2.11689e-20, cumulative = 2.40944e-18
ExecutionTime = 3.71 s  ClockTime = 4 s

forces forces write:
    sum of forces:
        pressure : (-3.80278e-05 -0.00021897 -1.25487e-23)
        viscous  : (0.000113888 -4.14144e-06 3.33367e-24)
        porous   : (0 0 0)
    sum of moments:
        pressure : (3.28454e-05 -5.70416e-06 -1.64825e-05)
        viscous  : (6.21217e-07 1.70831e-05 -6.37619e-06)
        porous   : (0 0 0)

Time = 16

smoothSolver:  Solving for Ux, Initial residual = 0.0131897, Final residual = 0.000480357, No Iterations 4
smoothSolver:  Solving for Uy, Initial residual = 0.012999, Final residual = 0.000689267, No Iterations 4
GAMG:  Solving for p, Initial residual = 0.836174, Final residual = 0.0738871, No Iterations 7
time step continuity errors : sum local = 1.38676e-06, global = -5.67404e-19, cumulative = 1.84203e-18
ExecutionTime = 3.89 s  ClockTime = 4 s

forces forces write:
    sum of forces:
        pressure : (-4.31196e-05 -0.000324966 -1.46762e-23)
        viscous  : (0.000109229 -3.21591e-07 3.89956e-24)
        porous   : (0 0 0)
    sum of moments:
        pressure : (4.87449e-05 -6.46793e-06 -2.33445e-05)
        viscous  : (4.82386e-08 1.63843e-05 -6.10147e-06)
        porous   : (0 0 0)

Time = 17

smoothSolver:  Solving for Ux, Initial residual = 0.0140995, Final residual = 0.000452106, No Iterations 4
smoothSolver:  Solving for Uy, Initial residual = 0.0155188, Final residual = 0.000866479, No Iterations 4
GAMG:  Solving for p, Initial residual = 0.821061, Final residual = 0.0639362, No Iterations 8
time step continuity errors : sum local = 1.12753e-06, global = -2.06915e-19, cumulative = 1.63512e-18
ExecutionTime = 4.06 s  ClockTime = 4 s

forces forces write:
    sum of forces:
        pressure : (-1.18909e-05 -8.46776e-05 -8.60737e-24)
        viscous  : (0.000105302 4.46102e-06 1.80059e-24)
        porous   : (0 0 0)
    sum of moments:
        pressure : (1.27016e-05 -1.78363e-06 -1.42949e-05)
        viscous  : (-6.69152e-07 1.57953e-05 -5.75274e-06)
        porous   : (0 0 0)

Time = 18

smoothSolver:  Solving for Ux, Initial residual = 0.0127647, Final residual = 0.000382483, No Iterations 4
smoothSolver:  Solving for Uy, Initial residual = 0.00892857, Final residual = 0.000315141, No Iterations 4
GAMG:  Solving for p, Initial residual = 0.780249, Final residual = 0.0613225, No Iterations 9
time step continuity errors : sum local = 9.43216e-07, global = 2.06498e-20, cumulative = 1.65577e-18
ExecutionTime = 4.26 s  ClockTime = 4 s

forces forces write:
    sum of forces:
        pressure : (1.54108e-05 0.000164549 -2.6299e-24)
        viscous  : (0.000101338 5.45732e-06 -8.81858e-26)
        porous   : (0 0 0)
    sum of moments:
        pressure : (-2.46824e-05 2.31162e-06 -2.00172e-06)
        viscous  : (-8.18598e-07 1.52006e-05 -5.44843e-06)
        porous   : (0 0 0)

Time = 19

smoothSolver:  Solving for Ux, Initial residual = 0.0103137, Final residual = 0.00043922, No Iterations 4
smoothSolver:  Solving for Uy, Initial residual = 0.00942874, Final residual = 0.000499925, No Iterations 4
GAMG:  Solving for p, Initial residual = 0.817423, Final residual = 0.0540121, No Iterations 8
time step continuity errors : sum local = 7.7719e-07, global = -2.433e-19, cumulative = 1.41247e-18
ExecutionTime = 4.44 s  ClockTime = 4 s

forces forces write:
    sum of forces:
        pressure : (1.80242e-05 0.000193996 4.46967e-24)
        viscous  : (9.71996e-05 3.03084e-06 -1.51671e-24)
        porous   : (0 0 0)
    sum of moments:
        pressure : (-2.90994e-05 2.70363e-06 2.6721e-06)
        viscous  : (-4.54625e-07 1.45799e-05 -5.24653e-06)
        porous   : (0 0 0)

Time = 20

smoothSolver:  Solving for Ux, Initial residual = 0.0103698, Final residual = 0.000403527, No Iterations 4
smoothSolver:  Solving for Uy, Initial residual = 0.00889782, Final residual = 0.000448349, No Iterations 4
GAMG:  Solving for p, Initial residual = 0.812138, Final residual = 0.0749562, No Iterations 6
time step continuity errors : sum local = 1.00664e-06, global = -1.6875e-19, cumulative = 1.24372e-18
ExecutionTime = 4.61 s  ClockTime = 5 s

forces forces write:
    sum of forces:
        pressure : (-3.11878e-07 4.97824e-05 8.84321e-25)
        viscous  : (9.32491e-05 5.27315e-07 -2.26423e-25)
        porous   : (0 0 0)
    sum of moments:
        pressure : (-7.46736e-06 -4.67818e-08 -1.83079e-06)
        viscous  : (-7.90973e-08 1.39874e-05 -5.11287e-06)
        porous   : (0 0 0)

Time = 21

smoothSolver:  Solving for Ux, Initial residual = 0.00911798, Final residual = 0.000325093, No Iterations 4
smoothSolver:  Solving for Uy, Initial residual = 0.00506117, Final residual = 0.000133445, No Iterations 4
GAMG:  Solving for p, Initial residual = 0.782331, Final residual = 0.0481912, No Iterations 9
time step continuity errors : sum local = 5.78775e-07, global = -8.31465e-20, cumulative = 1.16057e-18
ExecutionTime = 4.8 s  ClockTime = 5 s

forces forces write:
    sum of forces:
        pressure : (-1.49185e-05 -7.50104e-05 -2.13812e-24)
        viscous  : (8.9871e-05 1.99674e-07 6.56762e-25)
        porous   : (0 0 0)
    sum of moments:
        pressure : (1.12516e-05 -2.23778e-06 -8.57842e-06)
        viscous  : (-2.99511e-08 1.34807e-05 -4.98023e-06)
        porous   : (0 0 0)

Time = 22

smoothSolver:  Solving for Ux, Initial residual = 0.00724862, Final residual = 0.000303239, No Iterations 4
smoothSolver:  Solving for Uy, Initial residual = 0.00619001, Final residual = 0.000302789, No Iterations 4
GAMG:  Solving for p, Initial residual = 0.789772, Final residual = 0.0469425, No Iterations 7
time step continuity errors : sum local = 5.32677e-07, global = -3.38106e-19, cumulative = 8.22465e-19
ExecutionTime = 4.97 s  ClockTime = 5 s

forces forces write:
    sum of forces:
        pressure : (-1.44405e-05 -7.28784e-05 -2.06669e-24)
        viscous  : (8.69902e-05 1.54181e-06 4.29397e-25)
        porous   : (0 0 0)
    sum of moments:
        pressure : (1.09318e-05 -2.16608e-06 -1.1584e-05)
        viscous  : (-2.31271e-07 1.30485e-05 -4.81863e-06)
        porous   : (0 0 0)

Time = 23

smoothSolver:  Solving for Ux, Initial residual = 0.00724818, Final residual = 0.0002829, No Iterations 4
smoothSolver:  Solving for Uy, Initial residual = 0.00577808, Final residual = 0.00028913, No Iterations 4
GAMG:  Solving for p, Initial residual = 0.779658, Final residual = 0.0759209, No Iterations 6
time step continuity errors : sum local = 8.0678e-07, global = 1.48628e-19, cumulative = 9.71093e-19
ExecutionTime = 5.13 s  ClockTime = 5 s

forces forces write:
    sum of forces:
        pressure : (-4.60741e-06 1.2806e-05 1.79587e-26)
        viscous  : (8.43434e-05 2.70165e-06 -3.55949e-25)
        porous   : (0 0 0)
    sum of moments:
        pressure : (-1.92091e-06 -6.91112e-07 -9.47084e-06)
        viscous  : (-4.05247e-07 1.26515e-05 -4.64473e-06)
        porous   : (0 0 0)

Time = 24

smoothSolver:  Solving for Ux, Initial residual = 0.00692097, Final residual = 0.000286033, No Iterations 4
smoothSolver:  Solving for Uy, Initial residual = 0.00390071, Final residual = 0.000134341, No Iterations 4
GAMG:  Solving for p, Initial residual = 0.76979, Final residual = 0.0746719, No Iterations 7
time step continuity errors : sum local = 7.26865e-07, global = 3.50791e-20, cumulative = 1.00617e-18
ExecutionTime = 5.3 s  ClockTime = 5 s

forces forces write:
    sum of forces:
        pressure : (2.10697e-06 7.34717e-05 1.48392e-24)
        viscous  : (8.17512e-05 2.632e-06 -7.55357e-25)
        porous   : (0 0 0)
    sum of moments:
        pressure : (-1.10207e-05 3.16045e-07 -6.01643e-06)
        viscous  : (-3.948e-07 1.22627e-05 -4.49005e-06)
        porous   : (0 0 0)

Time = 25

smoothSolver:  Solving for Ux, Initial residual = 0.00615648, Final residual = 0.000291897, No Iterations 4
smoothSolver:  Solving for Uy, Initial residual = 0.00436818, Final residual = 0.000207303, No Iterations 4
GAMG:  Solving for p, Initial residual = 0.775739, Final residual = 0.0752665, No Iterations 5
time step continuity errors : sum local = 6.72502e-07, global = 3.56053e-19, cumulative = 1.36222e-18
ExecutionTime = 5.47 s  ClockTime = 5 s

forces forces write:
    sum of forces:
        pressure : (7.1239e-07 6.25801e-05 1.23464e-24)
        viscous  : (7.92297e-05 1.76902e-06 -4.98318e-25)
        porous   : (0 0 0)
    sum of moments:
        pressure : (-9.38702e-06 1.06858e-07 -4.27263e-06)
        viscous  : (-2.65353e-07 1.18845e-05 -4.36583e-06)
        porous   : (0 0 0)

Time = 26

smoothSolver:  Solving for Ux, Initial residual = 0.00600555, Final residual = 0.000267276, No Iterations 4
smoothSolver:  Solving for Uy, Initial residual = 0.00351599, Final residual = 0.000136664, No Iterations 4
GAMG:  Solving for p, Initial residual = 0.776268, Final residual = 0.0570146, No Iterations 7
time step continuity errors : sum local = 4.76866e-07, global = -3.06099e-19, cumulative = 1.05613e-18
ExecutionTime = 5.64 s  ClockTime = 6 s

forces forces write:
    sum of forces:
        pressure : (-4.9075e-06 1.39523e-05 6.95055e-26)
        viscous  : (7.68907e-05 1.12966e-06 -1.61381e-26)
        porous   : (0 0 0)
    sum of moments:
        pressure : (-2.09284e-06 -7.36124e-07 -5.17399e-06)
        viscous  : (-1.69449e-07 1.15336e-05 -4.2594e-06)
        porous   : (0 0 0)

Time = 27

smoothSolver:  Solving for Ux, Initial residual = 0.00542872, Final residual = 0.000240144, No Iterations 4
smoothSolver:  Solving for Uy, Initial residual = 0.00274301, Final residual = 7.83938e-05, No Iterations 4
GAMG:  Solving for p, Initial residual = 0.751553, Final residual = 0.0541471, No Iterations 6
time step continuity errors : sum local = 4.12944e-07, global = -5.01175e-19, cumulative = 5.54951e-19
ExecutionTime = 5.81 s  ClockTime = 6 s

forces forces write:
    sum of forces:
        pressure : (-8.2763e-06 -1.38911e-05 -6.19707e-25)
        viscous  : (7.47903e-05 1.18712e-06 1.5401e-25)
        porous   : (0 0 0)
    sum of moments:
        pressure : (2.08366e-06 -1.24145e-06 -7.00334e-06)
        viscous  : (-1.78068e-07 1.12185e-05 -4.15244e-06)
        porous   : (0 0 0)

Time = 28

smoothSolver:  Solving for Ux, Initial residual = 0.00475848, Final residual = 0.000227919, No Iterations 4
smoothSolver:  Solving for Uy, Initial residual = 0.00306002, Final residual = 0.000130292, No Iterations 4
GAMG:  Solving for p, Initial residual = 0.74251, Final residual = 0.0649188, No Iterations 5
time step continuity errors : sum local = 4.75464e-07, global = 9.57431e-19, cumulative = 1.51238e-18
ExecutionTime = 5.96 s  ClockTime = 6 s

forces forces write:
    sum of forces:
        pressure : (-7.26033e-06 -1.65623e-06 -3.67036e-25)
        viscous  : (7.28806e-05 1.61861e-06 -6.94518e-26)
        porous   : (0 0 0)
    sum of moments:
        pressure : (2.48435e-07 -1.08905e-06 -8.01616e-06)
        viscous  : (-2.42791e-07 1.09321e-05 -4.03999e-06)
        porous   : (0 0 0)

Time = 29

smoothSolver:  Solving for Ux, Initial residual = 0.00478866, Final residual = 0.000223584, No Iterations 4
smoothSolver:  Solving for Uy, Initial residual = 0.00272061, Final residual = 0.000107899, No Iterations 4
GAMG:  Solving for p, Initial residual = 0.721499, Final residual = 0.0661305, No Iterations 5
time step continuity errors : sum local = 4.5978e-07, global = -4.11485e-19, cumulative = 1.1009e-18
ExecutionTime = 6.12 s  ClockTime = 6 s

forces forces write:
    sum of forces:
        pressure : (-4.42648e-06 2.62903e-05 2.74146e-25)
        viscous  : (7.10729e-05 1.86794e-06 -3.74344e-25)
        porous   : (0 0 0)
    sum of moments:
        pressure : (-3.94355e-06 -6.63973e-07 -7.72286e-06)
        viscous  : (-2.8019e-07 1.06609e-05 -3.93001e-06)
        porous   : (0 0 0)

Time = 30

smoothSolver:  Solving for Ux, Initial residual = 0.00460774, Final residual = 0.00022553, No Iterations 4
smoothSolver:  Solving for Uy, Initial residual = 0.00246796, Final residual = 8.68606e-05, No Iterations 4
GAMG:  Solving for p, Initial residual = 0.701324, Final residual = 0.0387775, No Iterations 6
time step continuity errors : sum local = 2.4977e-07, global = 4.3801e-19, cumulative = 1.53891e-18
ExecutionTime = 6.29 s  ClockTime = 6 s

forces forces write:
    sum of forces:
        pressure : (-3.12744e-06 3.84002e-05 5.68956e-25)
        viscous  : (6.93181e-05 1.73168e-06 -4.48116e-25)
        porous   : (0 0 0)
    sum of moments:
        pressure : (-5.76003e-06 -4.69115e-07 -6.87459e-06)
        viscous  : (-2.59752e-07 1.03977e-05 -3.83162e-06)
        porous   : (0 0 0)

Time = 31

smoothSolver:  Solving for Ux, Initial residual = 0.00429656, Final residual = 0.000221454, No Iterations 4
smoothSolver:  Solving for Uy, Initial residual = 0.00245886, Final residual = 9.65021e-05, No Iterations 4
GAMG:  Solving for p, Initial residual = 0.705301, Final residual = 0.0570454, No Iterations 5
time step continuity errors : sum local = 3.46169e-07, global = 4.65206e-19, cumulative = 2.00411e-18
ExecutionTime = 6.45 s  ClockTime = 6 s

forces forces write:
    sum of forces:
        pressure : (-4.06548e-06 2.85875e-05 3.63922e-25)
        viscous  : (6.76265e-05 1.42984e-06 -2.84814e-25)
        porous   : (0 0 0)
    sum of moments:
        pressure : (-4.28813e-06 -6.09821e-07 -6.36046e-06)
        viscous  : (-2.14476e-07 1.0144e-05 -3.7455e-06)
        porous   : (0 0 0)

Time = 32

smoothSolver:  Solving for Ux, Initial residual = 0.00418639, Final residual = 0.000208502, No Iterations 4
smoothSolver:  Solving for Uy, Initial residual = 0.00206172, Final residual = 6.45869e-05, No Iterations 4
GAMG:  Solving for p, Initial residual = 0.693657, Final residual = 0.048915, No Iterations 5
time step continuity errors : sum local = 2.76255e-07, global = 2.72529e-19, cumulative = 2.27664e-18
ExecutionTime = 6.6 s  ClockTime = 7 s

forces forces write:
    sum of forces:
        pressure : (-5.57865e-06 1.32676e-05 2.42901e-26)
        viscous  : (6.60289e-05 1.26308e-06 -9.2911e-26)
        porous   : (0 0 0)
    sum of moments:
        pressure : (-1.99013e-06 -8.36797e-07 -6.36789e-06)
        viscous  : (-1.89462e-07 9.90434e-06 -3.66527e-06)
        porous   : (0 0 0)

Time = 33

smoothSolver:  Solving for Ux, Initial residual = 0.00394309, Final residual = 0.000195224, No Iterations 4
smoothSolver:  Solving for Uy, Initial residual = 0.00199404, Final residual = 6.25547e-05, No Iterations 4
GAMG:  Solving for p, Initial residual = 0.673006, Final residual = 0.0525298, No Iterations 5
time step continuity errors : sum local = 2.77371e-07, global = -1.35503e-19, cumulative = 2.14114e-18
ExecutionTime = 6.76 s  ClockTime = 7 s

forces forces write:
    sum of forces:
        pressure : (-6.05783e-06 9.36386e-06 -7.8236e-26)
        viscous  : (6.45343e-05 1.31276e-06 -6.4568e-26)
        porous   : (0 0 0)
    sum of moments:
        pressure : (-1.40458e-06 -9.08675e-07 -6.72415e-06)
        viscous  : (-1.96915e-07 9.68015e-06 -3.58495e-06)
        porous   : (0 0 0)

Time = 34

smoothSolver:  Solving for Ux, Initial residual = 0.00363169, Final residual = 0.000189234, No Iterations 4
smoothSolver:  Solving for Uy, Initial residual = 0.00192445, Final residual = 6.86562e-05, No Iterations 4
GAMG:  Solving for p, Initial residual = 0.66677, Final residual = 0.0372881, No Iterations 6
time step continuity errors : sum local = 1.90187e-07, global = 1.02438e-19, cumulative = 2.24358e-18
ExecutionTime = 6.94 s  ClockTime = 7 s

forces forces write:
    sum of forces:
        pressure : (-5.43648e-06 1.72225e-05 7.35385e-26)
        viscous  : (6.31219e-05 1.43473e-06 -1.79186e-25)
        porous   : (0 0 0)
    sum of moments:
        pressure : (-2.58338e-06 -8.15472e-07 -7.04042e-06)
        viscous  : (-2.15209e-07 9.46828e-06 -3.50419e-06)
        porous   : (0 0 0)

Time = 35

smoothSolver:  Solving for Ux, Initial residual = 0.00364482, Final residual = 0.000187804, No Iterations 4
smoothSolver:  Solving for Uy, Initial residual = 0.00175774, Final residual = 5.70363e-05, No Iterations 4
GAMG:  Solving for p, Initial residual = 0.64291, Final residual = 0.0416126, No Iterations 5
time step continuity errors : sum local = 2.04233e-07, global = -3.67164e-19, cumulative = 1.87641e-18
ExecutionTime = 7.1 s  ClockTime = 7 s

forces forces write:
    sum of forces:
        pressure : (-4.7455e-06 2.59405e-05 2.4858e-25)
        viscous  : (6.17651e-05 1.46847e-06 -2.93764e-25)
        porous   : (0 0 0)
    sum of moments:
        pressure : (-3.89108e-06 -7.11825e-07 -7.14982e-06)
        viscous  : (-2.2027e-07 9.26476e-06 -3.42638e-06)
        porous   : (0 0 0)

Time = 36

smoothSolver:  Solving for Ux, Initial residual = 0.00356423, Final residual = 0.000185943, No Iterations 4
smoothSolver:  Solving for Uy, Initial residual = 0.00183094, Final residual = 5.9609e-05, No Iterations 4
GAMG:  Solving for p, Initial residual = 0.618705, Final residual = 0.0438157, No Iterations 5
time step continuity errors : sum local = 2.0168e-07, global = 1.15924e-19, cumulative = 1.99234e-18
ExecutionTime = 7.25 s  ClockTime = 7 s

forces forces write:
    sum of forces:
        pressure : (-4.78531e-06 2.68192e-05 2.57742e-25)
        viscous  : (6.0453e-05 1.38826e-06 -3.02735e-25)
        porous   : (0 0 0)
    sum of moments:
        pressure : (-4.02289e-06 -7.17796e-07 -7.13142e-06)
        viscous  : (-2.08239e-07 9.06795e-06 -3.3545e-06)
        porous   : (0 0 0)

Time = 37

smoothSolver:  Solving for Ux, Initial residual = 0.00335487, Final residual = 0.000180802, No Iterations 4
smoothSolver:  Solving for Uy, Initial residual = 0.00181149, Final residual = 6.05699e-05, No Iterations 4
GAMG:  Solving for p, Initial residual = 0.619867, Final residual = 0.0531017, No Iterations 5
time step continuity errors : sum local = 2.34258e-07, global = -3.12557e-19, cumulative = 1.67978e-18
ExecutionTime = 7.41 s  ClockTime = 7 s

forces forces write:
    sum of forces:
        pressure : (-5.30662e-06 2.16184e-05 1.49677e-25)
        viscous  : (5.91914e-05 1.28211e-06 -2.29448e-25)
        porous   : (0 0 0)
    sum of moments:
        pressure : (-3.24275e-06 -7.95993e-07 -7.00566e-06)
        viscous  : (-1.92316e-07 8.8787e-06 -3.28832e-06)
        porous   : (0 0 0)

Time = 38

smoothSolver:  Solving for Ux, Initial residual = 0.00326105, Final residual = 0.00017375, No Iterations 4
smoothSolver:  Solving for Uy, Initial residual = 0.00166445, Final residual = 5.35665e-05, No Iterations 4
GAMG:  Solving for p, Initial residual = 0.599905, Final residual = 0.0185056, No Iterations 6
time step continuity errors : sum local = 7.87199e-08, global = -2.43279e-19, cumulative = 1.4365e-18
ExecutionTime = 7.57 s  ClockTime = 8 s

forces forces write:
    sum of forces:
        pressure : (-5.70168e-06 1.7045e-05 6.15746e-26)
        viscous  : (5.79881e-05 1.23409e-06 -1.60562e-25)
        porous   : (0 0 0)
    sum of moments:
        pressure : (-2.55674e-06 -8.55253e-07 -6.86586e-06)
        viscous  : (-1.85114e-07 8.69822e-06 -3.22552e-06)
        porous   : (0 0 0)

Time = 39

smoothSolver:  Solving for Ux, Initial residual = 0.00319139, Final residual = 0.000167043, No Iterations 4
smoothSolver:  Solving for Uy, Initial residual = 0.00168565, Final residual = 5.41164e-05, No Iterations 4
GAMG:  Solving for p, Initial residual = 0.578073, Final residual = 0.0315422, No Iterations 5
time step continuity errors : sum local = 1.26667e-07, global = -2.50085e-19, cumulative = 1.18641e-18
ExecutionTime = 7.73 s  ClockTime = 8 s

forces forces write:
    sum of forces:
        pressure : (-5.64226e-06 1.76851e-05 8.0841e-26)
        viscous  : (5.68426e-05 1.24869e-06 -1.60818e-25)
        porous   : (0 0 0)
    sum of moments:
        pressure : (-2.65276e-06 -8.46339e-07 -6.8137e-06)
        viscous  : (-1.87304e-07 8.52639e-06 -3.16421e-06)
        porous   : (0 0 0)

Time = 40

smoothSolver:  Solving for Ux, Initial residual = 0.0030829, Final residual = 0.000162779, No Iterations 4
smoothSolver:  Solving for Uy, Initial residual = 0.00162502, Final residual = 5.22139e-05, No Iterations 4
GAMG:  Solving for p, Initial residual = 0.568743, Final residual = 0.032104, No Iterations 6
time step continuity errors : sum local = 1.24079e-07, global = -4.98908e-19, cumulative = 6.87506e-19
ExecutionTime = 7.89 s  ClockTime = 8 s

forces forces write:
    sum of forces:
        pressure : (-5.57731e-06 2.17051e-05 -5.76096e-25)
        viscous  : (5.57532e-05 1.2715e-06 -4.88394e-26)
        porous   : (0 0 0)
    sum of moments:
        pressure : (-3.25577e-06 -8.36596e-07 -6.86334e-06)
        viscous  : (-1.90725e-07 8.36298e-06 -3.1041e-06)
        porous   : (0 0 0)

Time = 41

smoothSolver:  Solving for Ux, Initial residual = 0.00302711, Final residual = 0.000160715, No Iterations 4
smoothSolver:  Solving for Uy, Initial residual = 0.00150931, Final residual = 4.76338e-05, No Iterations 4
GAMG:  Solving for p, Initial residual = 0.550301, Final residual = 0.0365321, No Iterations 5
time step continuity errors : sum local = 1.38098e-07, global = -9.33718e-20, cumulative = 5.94134e-19
ExecutionTime = 8.05 s  ClockTime = 8 s

forces forces write:
    sum of forces:
        pressure : (-5.42646e-06 2.43882e-05 -5.31388e-25)
        viscous  : (5.47105e-05 1.25914e-06 -8.82525e-26)
        porous   : (0 0 0)
    sum of moments:
        pressure : (-3.65823e-06 -8.1397e-07 -6.98255e-06)
        viscous  : (-1.88871e-07 8.20658e-06 -3.04609e-06)
        porous   : (0 0 0)

Time = 42

smoothSolver:  Solving for Ux, Initial residual = 0.00297038, Final residual = 0.000158083, No Iterations 4
smoothSolver:  Solving for Uy, Initial residual = 0.00152542, Final residual = 4.83144e-05, No Iterations 4
GAMG:  Solving for p, Initial residual = 0.526215, Final residual = 0.0312033, No Iterations 5
time step continuity errors : sum local = 1.12147e-07, global = -7.33141e-20, cumulative = 5.2082e-19
ExecutionTime = 8.21 s  ClockTime = 8 s

forces forces write:
    sum of forces:
        pressure : (-5.59724e-06 2.37173e-05 -5.60449e-25)
        viscous  : (5.37009e-05 1.21606e-06 -8.5611e-26)
        porous   : (0 0 0)
    sum of moments:
        pressure : (-3.55759e-06 -8.39586e-07 -7.10629e-06)
        viscous  : (-1.82409e-07 8.05514e-06 -2.99082e-06)
        porous   : (0 0 0)

Time = 43

smoothSolver:  Solving for Ux, Initial residual = 0.0028646, Final residual = 0.000154153, No Iterations 4
smoothSolver:  Solving for Uy, Initial residual = 0.00155178, Final residual = 4.95969e-05, No Iterations 4
GAMG:  Solving for p, Initial residual = 0.519783, Final residual = 0.0394352, No Iterations 5
time step continuity errors : sum local = 1.3631e-07, global = 9.90414e-20, cumulative = 6.19861e-19
ExecutionTime = 8.37 s  ClockTime = 8 s

forces forces write:
    sum of forces:
        pressure : (-5.85696e-06 2.13589e-05 -6.16026e-25)
        viscous  : (5.27282e-05 1.17411e-06 -5.40526e-26)
        porous   : (0 0 0)
    sum of moments:
        pressure : (-3.20383e-06 -8.78543e-07 -7.12262e-06)
        viscous  : (-1.76117e-07 7.90923e-06 -2.93808e-06)
        porous   : (0 0 0)

Time = 44

smoothSolver:  Solving for Ux, Initial residual = 0.00278793, Final residual = 0.000149584, No Iterations 4
smoothSolver:  Solving for Uy, Initial residual = 0.0015238, Final residual = 4.9402e-05, No Iterations 4
GAMG:  Solving for p, Initial residual = 0.505766, Final residual = 0.0144506, No Iterations 6
time step continuity errors : sum local = 4.82965e-08, global = -1.92334e-19, cumulative = 4.27528e-19
ExecutionTime = 8.53 s  ClockTime = 8 s

forces forces write:
    sum of forces:
        pressure : (-5.95952e-06 2.0061e-05 -6.39651e-25)
        viscous  : (5.17932e-05 1.15489e-06 -2.95718e-26)
        porous   : (0 0 0)
    sum of moments:
        pressure : (-3.00914e-06 -8.93928e-07 -7.04938e-06)
        viscous  : (-1.73233e-07 7.76898e-06 -2.88727e-06)
        porous   : (0 0 0)

Time = 45

smoothSolver:  Solving for Ux, Initial residual = 0.00275271, Final residual = 0.000145593, No Iterations 4
smoothSolver:  Solving for Uy, Initial residual = 0.00150099, Final residual = 4.89376e-05, No Iterations 4
GAMG:  Solving for p, Initial residual = 0.487553, Final residual = 0.0378908, No Iterations 5
time step continuity errors : sum local = 1.22603e-07, global = -5.44256e-19, cumulative = -1.16728e-19
ExecutionTime = 8.68 s  ClockTime = 9 s

forces forces write:
    sum of forces:
        pressure : (-5.86204e-06 2.08975e-05 -6.16831e-25)
        viscous  : (5.08928e-05 1.15286e-06 -3.20757e-26)
        porous   : (0 0 0)
    sum of moments:
        pressure : (-3.13463e-06 -8.79306e-07 -6.97023e-06)
        viscous  : (-1.7293e-07 7.63391e-06 -2.83805e-06)
        porous   : (0 0 0)

Time = 46

smoothSolver:  Solving for Ux, Initial residual = 0.00272037, Final residual = 0.000142484, No Iterations 4
smoothSolver:  Solving for Uy, Initial residual = 0.00148119, Final residual = 4.72775e-05, No Iterations 4
GAMG:  Solving for p, Initial residual = 0.469843, Final residual = 0.0329068, No Iterations 5
time step continuity errors : sum local = 1.03836e-07, global = -5.56922e-19, cumulative = -6.7365e-19
ExecutionTime = 8.85 s  ClockTime = 9 s

forces forces write:
    sum of forces:
        pressure : (-5.71896e-06 2.27005e-05 -5.78451e-25)
        viscous  : (5.0022e-05 1.14894e-06 -5.26717e-26)
        porous   : (0 0 0)
    sum of moments:
        pressure : (-3.40508e-06 -8.57844e-07 -6.95116e-06)
        viscous  : (-1.72341e-07 7.5033e-06 -2.79051e-06)
        porous   : (0 0 0)

Time = 47

smoothSolver:  Solving for Ux, Initial residual = 0.0026731, Final residual = 0.000139935, No Iterations 4
smoothSolver:  Solving for Uy, Initial residual = 0.00143193, Final residual = 4.50928e-05, No Iterations 4
GAMG:  Solving for p, Initial residual = 0.452919, Final residual = 0.013753, No Iterations 6
time step continuity errors : sum local = 4.26037e-08, global = -3.39198e-20, cumulative = -7.0757e-19
ExecutionTime = 9 s  ClockTime = 9 s

forces forces write:
    sum of forces:
        pressure : (-5.70659e-06 2.36652e-05 -5.6511e-25)
        viscous  : (4.91775e-05 1.13237e-06 -6.85433e-26)
        porous   : (0 0 0)
    sum of moments:
        pressure : (-3.54977e-06 -8.55989e-07 -7.00446e-06)
        viscous  : (-1.69856e-07 7.37663e-06 -2.74486e-06)
        porous   : (0 0 0)

Time = 48

smoothSolver:  Solving for Ux, Initial residual = 0.00261259, Final residual = 0.000137445, No Iterations 4
smoothSolver:  Solving for Uy, Initial residual = 0.00139553, Final residual = 4.44696e-05, No Iterations 4
GAMG:  Solving for p, Initial residual = 0.437034, Final residual = 0.0403172, No Iterations 3
time step continuity errors : sum local = 1.21494e-07, global = -1.95848e-19, cumulative = -9.03418e-19
ExecutionTime = 9.15 s  ClockTime = 9 s

forces forces write:
    sum of forces:
        pressure : (-5.78349e-06 2.33685e-05 -5.75872e-25)
        viscous  : (4.83585e-05 1.10796e-06 -6.80264e-26)
        porous   : (0 0 0)
    sum of moments:
        pressure : (-3.50527e-06 -8.67524e-07 -7.04784e-06)
        viscous  : (-1.66193e-07 7.25377e-06 -2.70109e-06)
        porous   : (0 0 0)

Time = 49

smoothSolver:  Solving for Ux, Initial residual = 0.00255837, Final residual = 0.00013454, No Iterations 4
smoothSolver:  Solving for Uy, Initial residual = 0.00138431, Final residual = 4.43381e-05, No Iterations 4
GAMG:  Solving for p, Initial residual = 0.424154, Final residual = 0.0295472, No Iterations 5
time step continuity errors : sum local = 8.67534e-08, global = -6.78488e-20, cumulative = -9.71267e-19
ExecutionTime = 9.3 s  ClockTime = 9 s

forces forces write:
    sum of forces:
        pressure : (-6.0013e-06 2.23306e-05 -6.08395e-25)
        viscous  : (4.75653e-05 1.08671e-06 -5.55078e-26)
        porous   : (0 0 0)
    sum of moments:
        pressure : (-3.34958e-06 -9.00195e-07 -7.10478e-06)
        viscous  : (-1.63007e-07 7.1348e-06 -2.65887e-06)
        porous   : (0 0 0)

Time = 50

smoothSolver:  Solving for Ux, Initial residual = 0.00250272, Final residual = 0.000131538, No Iterations 4
smoothSolver:  Solving for Uy, Initial residual = 0.0014006, Final residual = 4.57217e-05, No Iterations 4
GAMG:  Solving for p, Initial residual = 0.409175, Final residual = 0.0362535, No Iterations 3
time step continuity errors : sum local = 1.03222e-07, global = -1.23366e-19, cumulative = -1.09463e-18
ExecutionTime = 9.44 s  ClockTime = 9 s

forces forces write:
    sum of forces:
        pressure : (-6.072e-06 2.20445e-05 -6.16505e-25)
        viscous  : (4.67982e-05 1.07434e-06 -4.8434e-26)
        porous   : (0 0 0)
    sum of moments:
        pressure : (-3.30667e-06 -9.108e-07 -7.09679e-06)
        viscous  : (-1.61151e-07 7.01973e-06 -2.61781e-06)
        porous   : (0 0 0)

Time = 51

smoothSolver:  Solving for Ux, Initial residual = 0.00245881, Final residual = 0.000128836, No Iterations 4
smoothSolver:  Solving for Uy, Initial residual = 0.00139489, Final residual = 4.55913e-05, No Iterations 4
GAMG:  Solving for p, Initial residual = 0.400815, Final residual = 0.00992461, No Iterations 6
time step continuity errors : sum local = 2.76608e-08, global = -2.97593e-19, cumulative = -1.39223e-18
ExecutionTime = 9.61 s  ClockTime = 10 s

forces forces write:
    sum of forces:
        pressure : (-6.06956e-06 2.23995e-05 -6.07442e-25)
        viscous  : (4.60559e-05 1.06644e-06 -4.50952e-26)
        porous   : (0 0 0)
    sum of moments:
        pressure : (-3.35992e-06 -9.10434e-07 -7.05684e-06)
        viscous  : (-1.59966e-07 6.90839e-06 -2.57788e-06)
        porous   : (0 0 0)

Time = 52

smoothSolver:  Solving for Ux, Initial residual = 0.00244486, Final residual = 0.00012636, No Iterations 4
smoothSolver:  Solving for Uy, Initial residual = 0.00138487, Final residual = 4.48129e-05, No Iterations 4
GAMG:  Solving for p, Initial residual = 0.381123, Final residual = 0.033659, No Iterations 3
time step continuity errors : sum local = 9.18554e-08, global = 7.83877e-19, cumulative = -6.08348e-19
ExecutionTime = 9.75 s  ClockTime = 10 s

forces forces write:
    sum of forces:
        pressure : (-6.03823e-06 2.28778e-05 -5.96532e-25)
        viscous  : (4.53368e-05 1.05744e-06 -4.83137e-26)
        porous   : (0 0 0)
    sum of moments:
        pressure : (-3.43167e-06 -9.05735e-07 -7.04425e-06)
        viscous  : (-1.58616e-07 6.80052e-06 -2.53908e-06)
        porous   : (0 0 0)

Time = 53

smoothSolver:  Solving for Ux, Initial residual = 0.00240947, Final residual = 0.000124074, No Iterations 4
smoothSolver:  Solving for Uy, Initial residual = 0.00136821, Final residual = 4.39816e-05, No Iterations 4
GAMG:  Solving for p, Initial residual = 0.367006, Final residual = 0.0229036, No Iterations 5
time step continuity errors : sum local = 6.1548e-08, global = -3.02277e-19, cumulative = -9.10625e-19
ExecutionTime = 9.91 s  ClockTime = 10 s

forces forces write:
    sum of forces:
        pressure : (-6.0054e-06 2.35686e-05 -5.81378e-25)
        viscous  : (4.46393e-05 1.04483e-06 -5.62551e-26)
        porous   : (0 0 0)
    sum of moments:
        pressure : (-3.5353e-06 -9.00809e-07 -7.04065e-06)
        viscous  : (-1.56724e-07 6.6959e-06 -2.50158e-06)
        porous   : (0 0 0)

Time = 54

smoothSolver:  Solving for Ux, Initial residual = 0.00238617, Final residual = 0.000121911, No Iterations 4
smoothSolver:  Solving for Uy, Initial residual = 0.00133703, Final residual = 4.27123e-05, No Iterations 4
GAMG:  Solving for p, Initial residual = 0.352333, Final residual = 0.0313922, No Iterations 3
time step continuity errors : sum local = 8.29502e-08, global = -6.4784e-19, cumulative = -1.55847e-18
ExecutionTime = 10.06 s  ClockTime = 10 s

forces forces write:
    sum of forces:
        pressure : (-6.04443e-06 2.35823e-05 -5.84208e-25)
        viscous  : (4.39625e-05 1.02968e-06 -5.86904e-26)
        porous   : (0 0 0)
    sum of moments:
        pressure : (-3.53734e-06 -9.06664e-07 -7.06241e-06)
        viscous  : (-1.54452e-07 6.59437e-06 -2.46542e-06)
        porous   : (0 0 0)

Time = 55

smoothSolver:  Solving for Ux, Initial residual = 0.00234624, Final residual = 0.000119664, No Iterations 4
smoothSolver:  Solving for Uy, Initial residual = 0.00131843, Final residual = 4.2317e-05, No Iterations 4
GAMG:  Solving for p, Initial residual = 0.341882, Final residual = 0.0324183, No Iterations 5
time step continuity errors : sum local = 8.44728e-08, global = 3.19245e-19, cumulative = -1.23922e-18
ExecutionTime = 10.23 s  ClockTime = 10 s

forces forces write:
    sum of forces:
        pressure : (-6.15015e-06 2.34571e-05 -5.94295e-25)
        viscous  : (4.33058e-05 1.01585e-06 -5.90245e-26)
        porous   : (0 0 0)
    sum of moments:
        pressure : (-3.51857e-06 -9.22522e-07 -7.08961e-06)
        viscous  : (-1.52378e-07 6.49587e-06 -2.43045e-06)
        porous   : (0 0 0)

Time = 56

smoothSolver:  Solving for Ux, Initial residual = 0.00229902, Final residual = 0.000117572, No Iterations 4
smoothSolver:  Solving for Uy, Initial residual = 0.00130366, Final residual = 4.24795e-05, No Iterations 4
GAMG:  Solving for p, Initial residual = 0.327289, Final residual = 0.02552, No Iterations 3
time step continuity errors : sum local = 6.53459e-08, global = 2.30825e-19, cumulative = -1.0084e-18
ExecutionTime = 10.37 s  ClockTime = 10 s

forces forces write:
    sum of forces:
        pressure : (-6.20374e-06 2.33556e-05 -5.99768e-25)
        viscous  : (4.26687e-05 1.00519e-06 -5.71568e-26)
        porous   : (0 0 0)
    sum of moments:
        pressure : (-3.50335e-06 -9.3056e-07 -7.0938e-06)
        viscous  : (-1.50779e-07 6.4003e-06 -2.39647e-06)
        porous   : (0 0 0)

Time = 57

smoothSolver:  Solving for Ux, Initial residual = 0.00226206, Final residual = 0.000115451, No Iterations 4
smoothSolver:  Solving for Uy, Initial residual = 0.00129963, Final residual = 4.23843e-05, No Iterations 4
GAMG:  Solving for p, Initial residual = 0.317665, Final residual = 0.0289533, No Iterations 3
time step continuity errors : sum local = 7.31511e-08, global = -6.75477e-19, cumulative = -1.68387e-18
ExecutionTime = 10.52 s  ClockTime = 10 s

forces forces write:
    sum of forces:
        pressure : (-6.24251e-06 2.34304e-05 -6.00258e-25)
        viscous  : (4.20502e-05 9.96202e-07 -5.51358e-26)
        porous   : (0 0 0)
    sum of moments:
        pressure : (-3.51456e-06 -9.36376e-07 -7.08738e-06)
        viscous  : (-1.4943e-07 6.30753e-06 -2.36342e-06)
        porous   : (0 0 0)

Time = 58

smoothSolver:  Solving for Ux, Initial residual = 0.00222783, Final residual = 0.000113444, No Iterations 4
smoothSolver:  Solving for Uy, Initial residual = 0.00129507, Final residual = 4.22347e-05, No Iterations 4
GAMG:  Solving for p, Initial residual = 0.305371, Final residual = 0.0194845, No Iterations 5
time step continuity errors : sum local = 4.87229e-08, global = -9.62792e-19, cumulative = -2.64666e-18
ExecutionTime = 10.68 s  ClockTime = 11 s

forces forces write:
    sum of forces:
        pressure : (-6.28624e-06 2.36569e-05 -5.96964e-25)
        viscous  : (4.14491e-05 9.8708e-07 -5.30299e-26)
        porous   : (0 0 0)
    sum of moments:
        pressure : (-3.54853e-06 -9.42937e-07 -7.07631e-06)
        viscous  : (-1.48062e-07 6.21737e-06 -2.33129e-06)
        porous   : (0 0 0)

Time = 59

smoothSolver:  Solving for Ux, Initial residual = 0.00220985, Final residual = 0.000111529, No Iterations 4
smoothSolver:  Solving for Uy, Initial residual = 0.00129372, Final residual = 4.21829e-05, No Iterations 4
GAMG:  Solving for p, Initial residual = 0.290694, Final residual = 0.0228498, No Iterations 3
time step continuity errors : sum local = 5.61874e-08, global = 1.49118e-19, cumulative = -2.49755e-18
ExecutionTime = 10.82 s  ClockTime = 11 s

forces forces write:
    sum of forces:
        pressure : (-6.29066e-06 2.37783e-05 -5.93623e-25)
        viscous  : (4.08646e-05 9.76798e-07 -5.33305e-26)
        porous   : (0 0 0)
    sum of moments:
        pressure : (-3.56675e-06 -9.43598e-07 -7.07637e-06)
        viscous  : (-1.4652e-07 6.12968e-06 -2.30007e-06)
        porous   : (0 0 0)

Time = 60

smoothSolver:  Solving for Ux, Initial residual = 0.00217943, Final residual = 0.000109661, No Iterations 4
smoothSolver:  Solving for Uy, Initial residual = 0.00127976, Final residual = 4.17388e-05, No Iterations 4
GAMG:  Solving for p, Initial residual = 0.281174, Final residual = 0.0199581, No Iterations 5
time step continuity errors : sum local = 4.85657e-08, global = 2.71203e-19, cumulative = -2.22634e-18
ExecutionTime = 10.99 s  ClockTime = 11 s

forces forces write:
    sum of forces:
        pressure : (-6.29922e-06 2.39345e-05 -5.90162e-25)
        viscous  : (4.02957e-05 9.66195e-07 -5.5075e-26)
        porous   : (0 0 0)
    sum of moments:
        pressure : (-3.59018e-06 -9.44883e-07 -7.08056e-06)
        viscous  : (-1.44929e-07 6.04436e-06 -2.26974e-06)
        porous   : (0 0 0)

Time = 61

smoothSolver:  Solving for Ux, Initial residual = 0.00216234, Final residual = 0.000107875, No Iterations 4
smoothSolver:  Solving for Uy, Initial residual = 0.00126332, Final residual = 4.10821e-05, No Iterations 4
GAMG:  Solving for p, Initial residual = 0.267618, Final residual = 0.0225236, No Iterations 3
time step continuity errors : sum local = 5.40063e-08, global = -2.9256e-19, cumulative = -2.5189e-18
ExecutionTime = 11.13 s  ClockTime = 11 s

forces forces write:
    sum of forces:
        pressure : (-6.32291e-06 2.39433e-05 -5.92112e-25)
        viscous  : (3.9742e-05 9.56243e-07 -5.61052e-26)
        porous   : (0 0 0)
    sum of moments:
        pressure : (-3.59149e-06 -9.48436e-07 -7.09083e-06)
        viscous  : (-1.43436e-07 5.9613e-06 -2.24022e-06)
        porous   : (0 0 0)

Time = 62

smoothSolver:  Solving for Ux, Initial residual = 0.0021331, Final residual = 0.000106112, No Iterations 4
smoothSolver:  Solving for Uy, Initial residual = 0.00125282, Final residual = 4.07119e-05, No Iterations 4
GAMG:  Solving for p, Initial residual = 0.260291, Final residual = 0.0255546, No Iterations 4
time step continuity errors : sum local = 6.0561e-08, global = 4.45043e-20, cumulative = -2.4744e-18
ExecutionTime = 11.28 s  ClockTime = 11 s

forces forces write:
    sum of forces:
        pressure : (-6.36762e-06 2.41094e-05 -5.93468e-25)
        viscous  : (3.92028e-05 9.47394e-07 -5.78416e-26)
        porous   : (0 0 0)
    sum of moments:
        pressure : (-3.61642e-06 -9.55143e-07 -7.09586e-06)
        viscous  : (-1.42109e-07 5.88042e-06 -2.21149e-06)
        porous   : (0 0 0)

Time = 63

smoothSolver:  Solving for Ux, Initial residual = 0.00210594, Final residual = 0.00010447, No Iterations 4
smoothSolver:  Solving for Uy, Initial residual = 0.00123762, Final residual = 4.03438e-05, No Iterations 4
GAMG:  Solving for p, Initial residual = 0.249485, Final residual = 0.0236115, No Iterations 3
time step continuity errors : sum local = 5.5467e-08, global = 2.16664e-19, cumulative = -2.25773e-18
ExecutionTime = 11.42 s  ClockTime = 11 s

forces forces write:
    sum of forces:
        pressure : (-6.39591e-06 2.41758e-05 -5.9495e-25)
        viscous  : (3.86777e-05 9.39436e-07 -5.77176e-26)
        porous   : (0 0 0)
    sum of moments:
        pressure : (-3.62637e-06 -9.59386e-07 -7.09826e-06)
        viscous  : (-1.40915e-07 5.80165e-06 -2.18349e-06)
        porous   : (0 0 0)

Time = 64

smoothSolver:  Solving for Ux, Initial residual = 0.00207588, Final residual = 0.000102819, No Iterations 4
smoothSolver:  Solving for Uy, Initial residual = 0.00122771, Final residual = 4.00705e-05, No Iterations 4
GAMG:  Solving for p, Initial residual = 0.23887, Final residual = 0.0196707, No Iterations 5
time step continuity errors : sum local = 4.59645e-08, global = 3.19141e-19, cumulative = -1.93859e-18
ExecutionTime = 11.57 s  ClockTime = 12 s

forces forces write:
    sum of forces:
        pressure : (-6.43617e-06 2.43447e-05 -5.93628e-25)
        viscous  : (3.81659e-05 9.31573e-07 -5.69456e-26)
        porous   : (0 0 0)
    sum of moments:
        pressure : (-3.6517e-06 -9.65426e-07 -7.09463e-06)
        viscous  : (-1.39736e-07 5.72488e-06 -2.15624e-06)
        porous   : (0 0 0)

Time = 65

smoothSolver:  Solving for Ux, Initial residual = 0.00205118, Final residual = 0.000101332, No Iterations 4
smoothSolver:  Solving for Uy, Initial residual = 0.00121753, Final residual = 3.98577e-05, No Iterations 4
GAMG:  Solving for p, Initial residual = 0.227743, Final residual = 0.016454, No Iterations 3
time step continuity errors : sum local = 3.823e-08, global = -3.06324e-19, cumulative = -2.24492e-18
ExecutionTime = 11.72 s  ClockTime = 12 s

forces forces write:
    sum of forces:
        pressure : (-6.45029e-06 2.44049e-05 -5.92124e-25)
        viscous  : (3.76668e-05 9.23387e-07 -5.65067e-26)
        porous   : (0 0 0)
    sum of moments:
        pressure : (-3.66073e-06 -9.67544e-07 -7.09416e-06)
        viscous  : (-1.38508e-07 5.65002e-06 -2.12975e-06)
        porous   : (0 0 0)

Time = 66

smoothSolver:  Solving for Ux, Initial residual = 0.00202366, Final residual = 9.9768e-05, No Iterations 4
smoothSolver:  Solving for Uy, Initial residual = 0.00120922, Final residual = 3.95701e-05, No Iterations 4
GAMG:  Solving for p, Initial residual = 0.220298, Final residual = 0.0201309, No Iterations 3
time step continuity errors : sum local = 4.64301e-08, global = 6.62262e-19, cumulative = -1.58266e-18
ExecutionTime = 11.85 s  ClockTime = 12 s

forces forces write:
    sum of forces:
        pressure : (-6.47167e-06 2.44443e-05 -5.90758e-25)
        viscous  : (3.718e-05 9.15159e-07 -5.61863e-26)
        porous   : (0 0 0)
    sum of moments:
        pressure : (-3.66665e-06 -9.7075e-07 -7.0965e-06)
        viscous  : (-1.37274e-07 5.577e-06 -2.10398e-06)
        porous   : (0 0 0)

Time = 67

smoothSolver:  Solving for Ux, Initial residual = 0.00199916, Final residual = 9.82575e-05, No Iterations 4
smoothSolver:  Solving for Uy, Initial residual = 0.00120154, Final residual = 3.9291e-05, No Iterations 4
GAMG:  Solving for p, Initial residual = 0.211602, Final residual = 0.00795075, No Iterations 5
time step continuity errors : sum local = 1.81511e-08, global = 5.83191e-19, cumulative = -9.99465e-19
ExecutionTime = 12.01 s  ClockTime = 12 s

forces forces write:
    sum of forces:
        pressure : (-6.57189e-06 2.45395e-05 -7.80292e-25)
        viscous  : (3.67068e-05 9.07197e-07 -1.45653e-26)
        porous   : (0 0 0)
    sum of moments:
        pressure : (-3.68093e-06 -9.85783e-07 -7.09578e-06)
        viscous  : (-1.3608e-07 5.50603e-06 -2.07885e-06)
        porous   : (0 0 0)

Time = 68

smoothSolver:  Solving for Ux, Initial residual = 0.00198681, Final residual = 9.68343e-05, No Iterations 4
smoothSolver:  Solving for Uy, Initial residual = 0.0011953, Final residual = 3.90891e-05, No Iterations 4
GAMG:  Solving for p, Initial residual = 0.200482, Final residual = 0.0188758, No Iterations 3
time step continuity errors : sum local = 4.26626e-08, global = 1.5723e-19, cumulative = -8.42235e-19
ExecutionTime = 12.16 s  ClockTime = 12 s

forces forces write:
    sum of forces:
        pressure : (-6.58361e-06 2.45873e-05 -7.80884e-25)
        viscous  : (3.62469e-05 8.99743e-07 -1.51032e-26)
        porous   : (0 0 0)
    sum of moments:
        pressure : (-3.6881e-06 -9.87542e-07 -7.09807e-06)
        viscous  : (-1.34961e-07 5.43704e-06 -2.0543e-06)
        porous   : (0 0 0)

Time = 69

smoothSolver:  Solving for Ux, Initial residual = 0.0019634, Final residual = 9.54009e-05, No Iterations 4
smoothSolver:  Solving for Uy, Initial residual = 0.00118624, Final residual = 3.87808e-05, No Iterations 4
GAMG:  Solving for p, Initial residual = 0.192966, Final residual = 0.0110452, No Iterations 5
time step continuity errors : sum local = 2.47901e-08, global = -3.78016e-20, cumulative = -8.80036e-19
ExecutionTime = 12.3 s  ClockTime = 12 s

forces forces write:
    sum of forces:
        pressure : (-6.59386e-06 2.47574e-05 -7.80896e-25)
        viscous  : (3.57971e-05 8.92742e-07 -1.63953e-26)
        porous   : (0 0 0)
    sum of moments:
        pressure : (-3.71361e-06 -9.89078e-07 -7.09584e-06)
        viscous  : (-1.33911e-07 5.36957e-06 -2.03032e-06)
        porous   : (0 0 0)

Time = 70

smoothSolver:  Solving for Ux, Initial residual = 0.001947, Final residual = 9.40302e-05, No Iterations 4
smoothSolver:  Solving for Uy, Initial residual = 0.00117505, Final residual = 3.83244e-05, No Iterations 4
GAMG:  Solving for p, Initial residual = 0.183446, Final residual = 0.0158825, No Iterations 3
time step continuity errors : sum local = 3.53386e-08, global = -2.61243e-20, cumulative = -9.06161e-19
ExecutionTime = 12.44 s  ClockTime = 12 s

forces forces write:
    sum of forces:
        pressure : (-6.60321e-06 2.4829e-05 -7.81683e-25)
        viscous  : (3.53577e-05 8.86032e-07 -1.64994e-26)
        porous   : (0 0 0)
    sum of moments:
        pressure : (-3.72436e-06 -9.90481e-07 -7.09789e-06)
        viscous  : (-1.32905e-07 5.30366e-06 -2.00691e-06)
        porous   : (0 0 0)

Time = 71

smoothSolver:  Solving for Ux, Initial residual = 0.00192178, Final residual = 9.26655e-05, No Iterations 4
smoothSolver:  Solving for Uy, Initial residual = 0.00116633, Final residual = 3.80396e-05, No Iterations 4
GAMG:  Solving for p, Initial residual = 0.17693, Final residual = 0.00841999, No Iterations 5
time step continuity errors : sum local = 1.869e-08, global = 6.31548e-19, cumulative = -2.74613e-19
ExecutionTime = 12.59 s  ClockTime = 13 s

forces forces write:
    sum of forces:
        pressure : (-6.62667e-06 2.4977e-05 -7.80163e-25)
        viscous  : (3.49281e-05 8.79445e-07 -1.62918e-26)
        porous   : (0 0 0)
    sum of moments:
        pressure : (-3.74655e-06 -9.94e-07 -7.10018e-06)
        viscous  : (-1.31917e-07 5.23922e-06 -1.98409e-06)
        porous   : (0 0 0)

Time = 72

smoothSolver:  Solving for Ux, Initial residual = 0.0018993, Final residual = 9.14246e-05, No Iterations 4
smoothSolver:  Solving for Uy, Initial residual = 0.00115255, Final residual = 3.76645e-05, No Iterations 4
GAMG:  Solving for p, Initial residual = 0.168681, Final residual = 0.0167042, No Iterations 3
time step continuity errors : sum local = 3.69135e-08, global = -3.29849e-19, cumulative = -6.04462e-19
ExecutionTime = 12.74 s  ClockTime = 13 s

forces forces write:
    sum of forces:
        pressure : (-6.6402e-06 2.50128e-05 -7.79595e-25)
        viscous  : (3.45078e-05 8.72945e-07 -1.58548e-26)
        porous   : (0 0 0)
    sum of moments:
        pressure : (-3.75192e-06 -9.96029e-07 -7.1044e-06)
        viscous  : (-1.30942e-07 5.17616e-06 -1.96183e-06)
        porous   : (0 0 0)

Time = 73

smoothSolver:  Solving for Ux, Initial residual = 0.00187588, Final residual = 9.01474e-05, No Iterations 4
smoothSolver:  Solving for Uy, Initial residual = 0.00114393, Final residual = 3.7382e-05, No Iterations 4
GAMG:  Solving for p, Initial residual = 0.163058, Final residual = 0.0149209, No Iterations 4
time step continuity errors : sum local = 3.28447e-08, global = -4.38882e-19, cumulative = -1.04334e-18
ExecutionTime = 12.88 s  ClockTime = 13 s

forces forces write:
    sum of forces:
        pressure : (-6.66606e-06 2.50688e-05 -7.78287e-25)
        viscous  : (3.40961e-05 8.66664e-07 -1.55993e-26)
        porous   : (0 0 0)
    sum of moments:
        pressure : (-3.76032e-06 -9.99909e-07 -7.10687e-06)
        viscous  : (-1.3e-07 5.11442e-06 -1.94012e-06)
        porous   : (0 0 0)

Time = 74

smoothSolver:  Solving for Ux, Initial residual = 0.00185592, Final residual = 8.89466e-05, No Iterations 4
smoothSolver:  Solving for Uy, Initial residual = 0.00113531, Final residual = 3.71471e-05, No Iterations 4
GAMG:  Solving for p, Initial residual = 0.155479, Final residual = 0.0154919, No Iterations 3
time step continuity errors : sum local = 3.39715e-08, global = -4.4882e-19, cumulative = -1.49216e-18
ExecutionTime = 13.04 s  ClockTime = 13 s

forces forces write:
    sum of forces:
        pressure : (-6.68231e-06 2.51071e-05 -7.7768e-25)
        viscous  : (3.36929e-05 8.6068e-07 -1.58413e-26)
        porous   : (0 0 0)
    sum of moments:
        pressure : (-3.76606e-06 -1.00235e-06 -7.10653e-06)
        viscous  : (-1.29102e-07 5.05393e-06 -1.91893e-06)
        porous   : (0 0 0)

Time = 75

smoothSolver:  Solving for Ux, Initial residual = 0.0018351, Final residual = 8.77388e-05, No Iterations 4
smoothSolver:  Solving for Uy, Initial residual = 0.00112736, Final residual = 3.68921e-05, No Iterations 4
GAMG:  Solving for p, Initial residual = 0.149628, Final residual = 0.00923356, No Iterations 5
time step continuity errors : sum local = 2.01886e-08, global = -3.05897e-19, cumulative = -1.79806e-18
ExecutionTime = 13.22 s  ClockTime = 13 s

forces forces write:
    sum of forces:
        pressure : (-6.70864e-06 2.52543e-05 -7.76509e-25)
        viscous  : (3.32979e-05 8.54975e-07 -1.69501e-26)
        porous   : (0 0 0)
    sum of moments:
        pressure : (-3.78815e-06 -1.0063e-06 -7.0974e-06)
        viscous  : (-1.28246e-07 4.99469e-06 -1.89823e-06)
        porous   : (0 0 0)

Time = 76

smoothSolver:  Solving for Ux, Initial residual = 0.00182355, Final residual = 8.65837e-05, No Iterations 4
smoothSolver:  Solving for Uy, Initial residual = 0.00111944, Final residual = 3.65329e-05, No Iterations 4
GAMG:  Solving for p, Initial residual = 0.14135, Final residual = 0.00881987, No Iterations 5
time step continuity errors : sum local = 1.92201e-08, global = 2.11197e-19, cumulative = -1.58686e-18
ExecutionTime = 13.37 s  ClockTime = 13 s

forces forces write:
    sum of forces:
        pressure : (-6.72792e-06 2.53817e-05 -7.76252e-25)
        viscous  : (3.29112e-05 8.49489e-07 -1.76381e-26)
        porous   : (0 0 0)
    sum of moments:
        pressure : (-3.80726e-06 -1.00919e-06 -7.09454e-06)
        viscous  : (-1.27423e-07 4.93668e-06 -1.878e-06)
        porous   : (0 0 0)

Time = 77

smoothSolver:  Solving for Ux, Initial residual = 0.00180772, Final residual = 8.54391e-05, No Iterations 4
smoothSolver:  Solving for Uy, Initial residual = 0.00111124, Final residual = 3.61689e-05, No Iterations 4
GAMG:  Solving for p, Initial residual = 0.135659, Final residual = 0.00965887, No Iterations 3
time step continuity errors : sum local = 2.10152e-08, global = -2.10421e-19, cumulative = -1.79728e-18
ExecutionTime = 13.51 s  ClockTime = 13 s

forces forces write:
    sum of forces:
        pressure : (-6.73925e-06 2.54154e-05 -7.76936e-25)
        viscous  : (3.25325e-05 8.44148e-07 -1.74598e-26)
        porous   : (0 0 0)
    sum of moments:
        pressure : (-3.81231e-06 -1.01089e-06 -7.09754e-06)
        viscous  : (-1.26622e-07 4.87988e-06 -1.85824e-06)
        porous   : (0 0 0)

Time = 78

smoothSolver:  Solving for Ux, Initial residual = 0.00178522, Final residual = 8.42949e-05, No Iterations 4
smoothSolver:  Solving for Uy, Initial residual = 0.00110308, Final residual = 3.59054e-05, No Iterations 4
GAMG:  Solving for p, Initial residual = 0.1307, Final residual = 0.00863312, No Iterations 5
time step continuity errors : sum local = 1.87734e-08, global = -2.85159e-19, cumulative = -2.08244e-18
ExecutionTime = 13.67 s  ClockTime = 14 s

forces forces write:
    sum of forces:
        pressure : (-6.76621e-06 2.55063e-05 -7.76887e-25)
        viscous  : (3.21618e-05 8.38946e-07 -1.68968e-26)
        porous   : (0 0 0)
    sum of moments:
        pressure : (-3.82595e-06 -1.01493e-06 -7.10554e-06)
        viscous  : (-1.25842e-07 4.82426e-06 -1.83892e-06)
        porous   : (0 0 0)

Time = 79

smoothSolver:  Solving for Ux, Initial residual = 0.00176569, Final residual = 8.32298e-05, No Iterations 4
smoothSolver:  Solving for Uy, Initial residual = 0.00109162, Final residual = 3.5605e-05, No Iterations 4
GAMG:  Solving for p, Initial residual = 0.124267, Final residual = 0.00807612, No Iterations 5
time step continuity errors : sum local = 1.75503e-08, global = -8.20029e-20, cumulative = -2.16445e-18
ExecutionTime = 13.83 s  ClockTime = 14 s

forces forces write:
    sum of forces:
        pressure : (-6.79115e-06 2.55851e-05 -7.76086e-25)
        viscous  : (3.17987e-05 8.33907e-07 -1.65797e-26)
        porous   : (0 0 0)
    sum of moments:
        pressure : (-3.83777e-06 -1.01867e-06 -7.10909e-06)
        viscous  : (-1.25086e-07 4.7698e-06 -1.82004e-06)
        porous   : (0 0 0)

Time = 80

smoothSolver:  Solving for Ux, Initial residual = 0.00174771, Final residual = 8.21972e-05, No Iterations 4
smoothSolver:  Solving for Uy, Initial residual = 0.00108159, Final residual = 3.53235e-05, No Iterations 4
GAMG:  Solving for p, Initial residual = 0.119508, Final residual = 0.0117801, No Iterations 3
time step continuity errors : sum local = 2.55527e-08, global = 1.50528e-19, cumulative = -2.01392e-18
ExecutionTime = 13.97 s  ClockTime = 14 s

forces forces write:
    sum of forces:
        pressure : (-6.80594e-06 2.56126e-05 -7.75703e-25)
        viscous  : (3.1443e-05 8.29071e-07 -1.66295e-26)
        porous   : (0 0 0)
    sum of moments:
        pressure : (-3.84189e-06 -1.02089e-06 -7.10913e-06)
        viscous  : (-1.24361e-07 4.71645e-06 -1.80156e-06)
        porous   : (0 0 0)

Time = 81

smoothSolver:  Solving for Ux, Initial residual = 0.00172778, Final residual = 8.11415e-05, No Iterations 4
smoothSolver:  Solving for Uy, Initial residual = 0.0010744, Final residual = 3.50798e-05, No Iterations 4
GAMG:  Solving for p, Initial residual = 0.114968, Final residual = 0.0114183, No Iterations 4
time step continuity errors : sum local = 2.47705e-08, global = -5.46299e-19, cumulative = -2.56022e-18
ExecutionTime = 14.11 s  ClockTime = 14 s

forces forces write:
    sum of forces:
        pressure : (-6.83084e-06 2.57078e-05 -7.74358e-25)
        viscous  : (3.10946e-05 8.24436e-07 -1.72795e-26)
        porous   : (0 0 0)
    sum of moments:
        pressure : (-3.85617e-06 -1.02463e-06 -7.10282e-06)
        viscous  : (-1.23665e-07 4.66419e-06 -1.78347e-06)
        porous   : (0 0 0)

Time = 82

smoothSolver:  Solving for Ux, Initial residual = 0.00171352, Final residual = 8.01446e-05, No Iterations 4
smoothSolver:  Solving for Uy, Initial residual = 0.00106742, Final residual = 3.47949e-05, No Iterations 4
GAMG:  Solving for p, Initial residual = 0.110103, Final residual = 0.00332106, No Iterations 5
time step continuity errors : sum local = 7.19913e-09, global = 7.11221e-20, cumulative = -2.4891e-18
ExecutionTime = 14.27 s  ClockTime = 14 s

forces forces write:
    sum of forces:
        pressure : (-6.87438e-06 2.58186e-05 -8.44416e-25)
        viscous  : (3.07539e-05 8.19967e-07 -2.31415e-27)
        porous   : (0 0 0)
    sum of moments:
        pressure : (-3.87279e-06 -1.03116e-06 -7.09782e-06)
        viscous  : (-1.22995e-07 4.61308e-06 -1.76576e-06)
        porous   : (0 0 0)

Time = 83

smoothSolver:  Solving for Ux, Initial residual = 0.00169976, Final residual = 7.91517e-05, No Iterations 4
smoothSolver:  Solving for Uy, Initial residual = 0.00105928, Final residual = 3.44508e-05, No Iterations 4
GAMG:  Solving for p, Initial residual = 0.104749, Final residual = 0.010381, No Iterations 4
time step continuity errors : sum local = 2.24482e-08, global = 3.2367e-19, cumulative = -2.16543e-18
ExecutionTime = 14.42 s  ClockTime = 14 s

forces forces write:
    sum of forces:
        pressure : (-6.88912e-06 2.5906e-05 -8.43935e-25)
        viscous  : (3.04207e-05 8.15617e-07 -2.5828e-27)
        porous   : (0 0 0)
    sum of moments:
        pressure : (-3.88591e-06 -1.03337e-06 -7.09929e-06)
        viscous  : (-1.22342e-07 4.56311e-06 -1.74842e-06)
        porous   : (0 0 0)

Time = 84

smoothSolver:  Solving for Ux, Initial residual = 0.00168316, Final residual = 7.81793e-05, No Iterations 4
smoothSolver:  Solving for Uy, Initial residual = 0.00105017, Final residual = 3.41216e-05, No Iterations 4
GAMG:  Solving for p, Initial residual = 0.100739, Final residual = 0.00953029, No Iterations 4
time step continuity errors : sum local = 2.05822e-08, global = -1.23058e-19, cumulative = -2.28848e-18
ExecutionTime = 14.56 s  ClockTime = 15 s

forces forces write:
    sum of forces:
        pressure : (-6.90244e-06 2.59719e-05 -8.43919e-25)
        viscous  : (3.00938e-05 8.11385e-07 -2.46282e-27)
        porous   : (0 0 0)
    sum of moments:
        pressure : (-3.89579e-06 -1.03537e-06 -7.10332e-06)
        viscous  : (-1.21708e-07 4.51407e-06 -1.73145e-06)
        porous   : (0 0 0)

Time = 85

smoothSolver:  Solving for Ux, Initial residual = 0.00166522, Final residual = 7.72239e-05, No Iterations 4
smoothSolver:  Solving for Uy, Initial residual = 0.00104088, Final residual = 3.38323e-05, No Iterations 4
GAMG:  Solving for p, Initial residual = 0.0968331, Final residual = 0.0091456, No Iterations 4
time step continuity errors : sum local = 1.97422e-08, global = 2.16009e-19, cumulative = -2.07247e-18
ExecutionTime = 14.71 s  ClockTime = 15 s

forces forces write:
    sum of forces:
        pressure : (-6.91853e-06 2.60277e-05 -8.4388e-25)
        viscous  : (2.97732e-05 8.07282e-07 -2.2208e-27)
        porous   : (0 0 0)
    sum of moments:
        pressure : (-3.90416e-06 -1.03778e-06 -7.10572e-06)
        viscous  : (-1.21092e-07 4.46598e-06 -1.71485e-06)
        porous   : (0 0 0)

Time = 86

smoothSolver:  Solving for Ux, Initial residual = 0.00164771, Final residual = 7.62943e-05, No Iterations 4
smoothSolver:  Solving for Uy, Initial residual = 0.00103197, Final residual = 3.35766e-05, No Iterations 4
GAMG:  Solving for p, Initial residual = 0.0930161, Final residual = 0.00927602, No Iterations 4
time step continuity errors : sum local = 2.00294e-08, global = -4.3829e-20, cumulative = -2.1163e-18
ExecutionTime = 14.85 s  ClockTime = 15 s

forces forces write:
    sum of forces:
        pressure : (-6.93677e-06 2.60878e-05 -8.43475e-25)
        viscous  : (2.94586e-05 8.03335e-07 -2.12791e-27)
        porous   : (0 0 0)
    sum of moments:
        pressure : (-3.91317e-06 -1.04051e-06 -7.10493e-06)
        viscous  : (-1.205e-07 4.41879e-06 -1.6986e-06)
        porous   : (0 0 0)

Time = 87

smoothSolver:  Solving for Ux, Initial residual = 0.00163148, Final residual = 7.53947e-05, No Iterations 4
smoothSolver:  Solving for Uy, Initial residual = 0.00102368, Final residual = 3.33259e-05, No Iterations 4
GAMG:  Solving for p, Initial residual = 0.0891494, Final residual = 0.00821245, No Iterations 4
time step continuity errors : sum local = 1.77497e-08, global = -4.69049e-19, cumulative = -2.58535e-18
ExecutionTime = 15.01 s  ClockTime = 15 s

forces forces write:
    sum of forces:
        pressure : (-6.95481e-06 2.61618e-05 -8.42667e-25)
        viscous  : (2.91498e-05 7.99556e-07 -2.28029e-27)
        porous   : (0 0 0)
    sum of moments:
        pressure : (-3.92427e-06 -1.04322e-06 -7.10227e-06)
        viscous  : (-1.19933e-07 4.37246e-06 -1.68268e-06)
        porous   : (0 0 0)

Time = 88

smoothSolver:  Solving for Ux, Initial residual = 0.00161611, Final residual = 7.45167e-05, No Iterations 4
smoothSolver:  Solving for Uy, Initial residual = 0.00101579, Final residual = 3.30515e-05, No Iterations 4
GAMG:  Solving for p, Initial residual = 0.0855219, Final residual = 0.00751839, No Iterations 4
time step continuity errors : sum local = 1.62716e-08, global = -4.52819e-19, cumulative = -3.03817e-18
ExecutionTime = 15.16 s  ClockTime = 15 s

forces forces write:
    sum of forces:
        pressure : (-6.97169e-06 2.62454e-05 -8.4176e-25)
        viscous  : (2.88464e-05 7.95939e-07 -2.56512e-27)
        porous   : (0 0 0)
    sum of moments:
        pressure : (-3.93681e-06 -1.04575e-06 -7.10018e-06)
        viscous  : (-1.19391e-07 4.32697e-06 -1.66709e-06)
        porous   : (0 0 0)

Time = 89

smoothSolver:  Solving for Ux, Initial residual = 0.00160109, Final residual = 7.36497e-05, No Iterations 4
smoothSolver:  Solving for Uy, Initial residual = 0.00100796, Final residual = 3.27494e-05, No Iterations 4
GAMG:  Solving for p, Initial residual = 0.0818622, Final residual = 0.00811072, No Iterations 4
time step continuity errors : sum local = 1.75781e-08, global = -2.38714e-19, cumulative = -3.27688e-18
ExecutionTime = 15.3 s  ClockTime = 15 s

forces forces write:
    sum of forces:
        pressure : (-6.98828e-06 2.63254e-05 -8.41104e-25)
        viscous  : (2.85485e-05 7.92465e-07 -2.79626e-27)
        porous   : (0 0 0)
    sum of moments:
        pressure : (-3.94881e-06 -1.04824e-06 -7.10014e-06)
        viscous  : (-1.1887e-07 4.28227e-06 -1.65182e-06)
        porous   : (0 0 0)

Time = 90

smoothSolver:  Solving for Ux, Initial residual = 0.00158595, Final residual = 7.2793e-05, No Iterations 4
smoothSolver:  Solving for Uy, Initial residual = 0.000999947, Final residual = 3.24468e-05, No Iterations 4
GAMG:  Solving for p, Initial residual = 0.078438, Final residual = 0.00766988, No Iterations 4
time step continuity errors : sum local = 1.6656e-08, global = 1.79054e-19, cumulative = -3.09783e-18
ExecutionTime = 15.46 s  ClockTime = 15 s

forces forces write:
    sum of forces:
        pressure : (-7.00563e-06 2.63944e-05 -8.40749e-25)
        viscous  : (2.82557e-05 7.89122e-07 -2.88629e-27)
        porous   : (0 0 0)
    sum of moments:
        pressure : (-3.95915e-06 -1.05084e-06 -7.10151e-06)
        viscous  : (-1.18368e-07 4.23836e-06 -1.63685e-06)
        porous   : (0 0 0)

Time = 91

smoothSolver:  Solving for Ux, Initial residual = 0.00157064, Final residual = 7.19499e-05, No Iterations 4
smoothSolver:  Solving for Uy, Initial residual = 0.000991789, Final residual = 3.21681e-05, No Iterations 4
GAMG:  Solving for p, Initial residual = 0.0754023, Final residual = 0.00642655, No Iterations 4
time step continuity errors : sum local = 1.39963e-08, global = -8.8423e-19, cumulative = -3.98206e-18
ExecutionTime = 15.62 s  ClockTime = 16 s

forces forces write:
    sum of forces:
        pressure : (-7.02379e-06 2.64568e-05 -8.40455e-25)
        viscous  : (2.79682e-05 7.85904e-07 -2.88387e-27)
        porous   : (0 0 0)
    sum of moments:
        pressure : (-3.96852e-06 -1.05357e-06 -7.10256e-06)
        viscous  : (-1.17886e-07 4.19522e-06 -1.62218e-06)
        porous   : (0 0 0)

Time = 92

smoothSolver:  Solving for Ux, Initial residual = 0.0015555, Final residual = 7.11239e-05, No Iterations 4
smoothSolver:  Solving for Uy, Initial residual = 0.000983483, Final residual = 3.19105e-05, No Iterations 4
GAMG:  Solving for p, Initial residual = 0.072256, Final residual = 0.0062196, No Iterations 4
time step continuity errors : sum local = 1.35835e-08, global = 1.59712e-20, cumulative = -3.96609e-18
ExecutionTime = 15.76 s  ClockTime = 16 s

forces forces write:
    sum of forces:
        pressure : (-7.04208e-06 2.65203e-05 -8.40001e-25)
        viscous  : (2.76857e-05 7.8281e-07 -2.88199e-27)
        porous   : (0 0 0)
    sum of moments:
        pressure : (-3.97804e-06 -1.05631e-06 -7.10217e-06)
        viscous  : (-1.17422e-07 4.15285e-06 -1.60781e-06)
        porous   : (0 0 0)

Time = 93

smoothSolver:  Solving for Ux, Initial residual = 0.00154046, Final residual = 7.03159e-05, No Iterations 4
smoothSolver:  Solving for Uy, Initial residual = 0.000975166, Final residual = 3.16586e-05, No Iterations 4
GAMG:  Solving for p, Initial residual = 0.0691077, Final residual = 0.0062339, No Iterations 4
time step continuity errors : sum local = 1.36537e-08, global = 1.70761e-19, cumulative = -3.79533e-18
ExecutionTime = 15.91 s  ClockTime = 16 s

forces forces write:
    sum of forces:
        pressure : (-7.06005e-06 2.65868e-05 -8.39424e-25)
        viscous  : (2.74082e-05 7.79839e-07 -2.91989e-27)
        porous   : (0 0 0)
    sum of moments:
        pressure : (-3.98802e-06 -1.05901e-06 -7.10079e-06)
        viscous  : (-1.16976e-07 4.11122e-06 -1.59372e-06)
        porous   : (0 0 0)

Time = 94

smoothSolver:  Solving for Ux, Initial residual = 0.00152539, Final residual = 6.95229e-05, No Iterations 4
smoothSolver:  Solving for Uy, Initial residual = 0.000967086, Final residual = 3.1403e-05, No Iterations 4
GAMG:  Solving for p, Initial residual = 0.0661917, Final residual = 0.00556857, No Iterations 4
time step continuity errors : sum local = 1.22422e-08, global = -8.25289e-20, cumulative = -3.87786e-18
ExecutionTime = 16.05 s  ClockTime = 16 s

forces forces write:
    sum of forces:
        pressure : (-7.07789e-06 2.66544e-05 -8.38883e-25)
        viscous  : (2.71355e-05 7.76984e-07 -2.97647e-27)
        porous   : (0 0 0)
    sum of moments:
        pressure : (-3.99816e-06 -1.06168e-06 -7.09955e-06)
        viscous  : (-1.16548e-07 4.07032e-06 -1.57991e-06)
        porous   : (0 0 0)

Time = 95

smoothSolver:  Solving for Ux, Initial residual = 0.0015103, Final residual = 6.87426e-05, No Iterations 4
smoothSolver:  Solving for Uy, Initial residual = 0.000959217, Final residual = 3.11431e-05, No Iterations 4
GAMG:  Solving for p, Initial residual = 0.0635044, Final residual = 0.00244442, No Iterations 4
time step continuity errors : sum local = 5.37521e-09, global = 7.55076e-20, cumulative = -3.80235e-18
ExecutionTime = 16.21 s  ClockTime = 16 s

forces forces write:
    sum of forces:
        pressure : (-7.11371e-06 2.67082e-05 -8.96822e-25)
        viscous  : (2.68681e-05 7.74223e-07 9.86682e-27)
        porous   : (0 0 0)
    sum of moments:
        pressure : (-4.00624e-06 -1.06706e-06 -7.09978e-06)
        viscous  : (-1.16133e-07 4.03022e-06 -1.56635e-06)
        porous   : (0 0 0)

Time = 96

smoothSolver:  Solving for Ux, Initial residual = 0.0014949, Final residual = 6.79607e-05, No Iterations 4
smoothSolver:  Solving for Uy, Initial residual = 0.000951844, Final residual = 3.09134e-05, No Iterations 4
GAMG:  Solving for p, Initial residual = 0.0605197, Final residual = 0.00308874, No Iterations 5
time step continuity errors : sum local = 6.83041e-09, global = 4.10046e-19, cumulative = -3.3923e-18
ExecutionTime = 16.37 s  ClockTime = 16 s

forces forces write:
    sum of forces:
        pressure : (-7.12881e-06 2.67923e-05 -8.9599e-25)
        viscous  : (2.6606e-05 7.71553e-07 9.69271e-27)
        porous   : (0 0 0)
    sum of moments:
        pressure : (-4.01884e-06 -1.06932e-06 -7.0983e-06)
        viscous  : (-1.15733e-07 3.99089e-06 -1.55305e-06)
        porous   : (0 0 0)

Time = 97

[...]
smoothSolver:  Solving for Uy, Initial residual = 0.00280217, Final residual = 0.000141366, No Iterations 2
GAMG:  Solving for p, Initial residual = 0.470203, Final residual = 0.0343082, No Iterations 3
time step continuity errors : sum local = 3.51004e-07, global = 4.96298e-19, cumulative = -1.30966e-17
ExecutionTime = 492.93 s  ClockTime = 493 s

forces forces write:
    sum of forces:
        pressure : (1.4357e-07 1.32058e-05 1.13006e-25)
        viscous  : (1.13598e-06 4.40152e-07 -4.37664e-26)
        porous   : (0 0 0)
    sum of moments:
        pressure : (-1.98087e-06 2.15355e-08 -2.29541e-06)
        viscous  : (-6.60229e-08 1.70397e-07 -1.41628e-07)
        porous   : (0 0 0)

Time = 3644

smoothSolver:  Solving for Ux, Initial residual = 0.00237392, Final residual = 5.78776e-05, No Iterations 2
smoothSolver:  Solving for Uy, Initial residual = 0.00278787, Final residual = 0.000136024, No Iterations 2
GAMG:  Solving for p, Initial residual = 0.454699, Final residual = 0.0435412, No Iterations 3
time step continuity errors : sum local = 4.28769e-07, global = 7.6334e-19, cumulative = -1.23333e-17
ExecutionTime = 493.08 s  ClockTime = 493 s

forces forces write:
    sum of forces:
        pressure : (1.39283e-07 1.31212e-05 1.09853e-25)
        viscous  : (1.13595e-06 4.40161e-07 -4.25898e-26)
        porous   : (0 0 0)
    sum of moments:
        pressure : (-1.96818e-06 2.08924e-08 -2.29908e-06)
        viscous  : (-6.60242e-08 1.70393e-07 -1.41621e-07)
        porous   : (0 0 0)

Time = 3645

smoothSolver:  Solving for Ux, Initial residual = 0.00233565, Final residual = 5.58997e-05, No Iterations 2
smoothSolver:  Solving for Uy, Initial residual = 0.00276499, Final residual = 0.000130502, No Iterations 2
GAMG:  Solving for p, Initial residual = 0.450516, Final residual = 0.0446543, No Iterations 3
time step continuity errors : sum local = 4.27721e-07, global = 3.02074e-19, cumulative = -1.20312e-17
ExecutionTime = 493.22 s  ClockTime = 493 s

forces forces write:
    sum of forces:
        pressure : (1.40703e-07 1.30792e-05 1.07518e-25)
        viscous  : (1.13596e-06 4.40167e-07 -4.18002e-26)
        porous   : (0 0 0)
    sum of moments:
        pressure : (-1.96189e-06 2.11055e-08 -2.29928e-06)
        viscous  : (-6.6025e-08 1.70394e-07 -1.41609e-07)
        porous   : (0 0 0)

Time = 3646

smoothSolver:  Solving for Ux, Initial residual = 0.00230472, Final residual = 5.46145e-05, No Iterations 2
smoothSolver:  Solving for Uy, Initial residual = 0.00273883, Final residual = 0.000125599, No Iterations 2
GAMG:  Solving for p, Initial residual = 0.438477, Final residual = 0.0376925, No Iterations 3
time step continuity errors : sum local = 3.56193e-07, global = 1.86512e-19, cumulative = -1.18447e-17
ExecutionTime = 493.35 s  ClockTime = 493 s

forces forces write:
    sum of forces:
        pressure : (1.44626e-07 1.30739e-05 1.06247e-25)
        viscous  : (1.13601e-06 4.40172e-07 -4.15521e-26)
        porous   : (0 0 0)
    sum of moments:
        pressure : (-1.96108e-06 2.16939e-08 -2.29862e-06)
        viscous  : (-6.60257e-08 1.70401e-07 -1.41597e-07)
        porous   : (0 0 0)

Time = 3647

smoothSolver:  Solving for Ux, Initial residual = 0.0022932, Final residual = 5.38088e-05, No Iterations 2
smoothSolver:  Solving for Uy, Initial residual = 0.00272194, Final residual = 0.000122146, No Iterations 2
GAMG:  Solving for p, Initial residual = 0.424276, Final residual = 0.0326653, No Iterations 3
time step continuity errors : sum local = 3.05328e-07, global = 7.86536e-20, cumulative = -1.17661e-17
ExecutionTime = 493.49 s  ClockTime = 494 s

forces forces write:
    sum of forces:
        pressure : (1.47361e-07 1.30854e-05 1.05594e-25)
        viscous  : (1.13608e-06 4.4018e-07 -4.16906e-26)
        porous   : (0 0 0)
    sum of moments:
        pressure : (-1.96281e-06 2.21041e-08 -2.29985e-06)
        viscous  : (-6.60269e-08 1.70412e-07 -1.41589e-07)
        porous   : (0 0 0)

Time = 3648

smoothSolver:  Solving for Ux, Initial residual = 0.00229783, Final residual = 5.31797e-05, No Iterations 2
smoothSolver:  Solving for Uy, Initial residual = 0.00271024, Final residual = 0.000119736, No Iterations 2
GAMG:  Solving for p, Initial residual = 0.420315, Final residual = 0.0286256, No Iterations 3
time step continuity errors : sum local = 2.61919e-07, global = -2.03013e-19, cumulative = -1.19691e-17
ExecutionTime = 493.64 s  ClockTime = 494 s

forces forces write:
    sum of forces:
        pressure : (1.46049e-07 1.3092e-05 1.05206e-25)
        viscous  : (1.13616e-06 4.40189e-07 -4.19726e-26)
        porous   : (0 0 0)
    sum of moments:
        pressure : (-1.96381e-06 2.19074e-08 -2.30432e-06)
        viscous  : (-6.60284e-08 1.70423e-07 -1.41588e-07)
        porous   : (0 0 0)

Time = 3649

smoothSolver:  Solving for Ux, Initial residual = 0.00228563, Final residual = 5.26722e-05, No Iterations 2
smoothSolver:  Solving for Uy, Initial residual = 0.00269119, Final residual = 0.000117316, No Iterations 2
GAMG:  Solving for p, Initial residual = 0.413706, Final residual = 0.0303265, No Iterations 3
time step continuity errors : sum local = 2.73661e-07, global = -4.58187e-20, cumulative = -1.20149e-17
ExecutionTime = 493.79 s  ClockTime = 494 s

forces forces write:
    sum of forces:
        pressure : (1.41106e-07 1.30768e-05 1.04861e-25)
        viscous  : (1.13622e-06 4.40193e-07 -4.21425e-26)
        porous   : (0 0 0)
    sum of moments:
        pressure : (-1.96152e-06 2.11659e-08 -2.31052e-06)
        viscous  : (-6.6029e-08 1.70433e-07 -1.41594e-07)
        porous   : (0 0 0)

Time = 3650

smoothSolver:  Solving for Ux, Initial residual = 0.00226473, Final residual = 5.20542e-05, No Iterations 2
smoothSolver:  Solving for Uy, Initial residual = 0.00266218, Final residual = 0.000114361, No Iterations 2
GAMG:  Solving for p, Initial residual = 0.406939, Final residual = 0.0318854, No Iterations 3
time step continuity errors : sum local = 2.85254e-07, global = 8.00849e-20, cumulative = -1.19348e-17
ExecutionTime = 493.94 s  ClockTime = 494 s

forces forces write:
    sum of forces:
        pressure : (1.35698e-07 1.30411e-05 1.04585e-25)
        viscous  : (1.13627e-06 4.40185e-07 -4.21417e-26)
        porous   : (0 0 0)
    sum of moments:
        pressure : (-1.95616e-06 2.03547e-08 -2.31548e-06)
        viscous  : (-6.60278e-08 1.7044e-07 -1.41601e-07)
        porous   : (0 0 0)

Time = 3651

smoothSolver:  Solving for Ux, Initial residual = 0.00223788, Final residual = 5.11586e-05, No Iterations 2
smoothSolver:  Solving for Uy, Initial residual = 0.00262508, Final residual = 0.000110478, No Iterations 2
GAMG:  Solving for p, Initial residual = 0.401463, Final residual = 0.0290613, No Iterations 3
time step continuity errors : sum local = 2.59343e-07, global = 5.9896e-19, cumulative = -1.13358e-17
ExecutionTime = 494.09 s  ClockTime = 494 s

forces forces write:
    sum of forces:
        pressure : (1.32459e-07 1.29989e-05 1.04409e-25)
        viscous  : (1.13628e-06 4.40166e-07 -4.20693e-26)
        porous   : (0 0 0)
    sum of moments:
        pressure : (-1.94984e-06 1.98689e-08 -2.31755e-06)
        viscous  : (-6.6025e-08 1.70442e-07 -1.41606e-07)
        porous   : (0 0 0)

Time = 3652

smoothSolver:  Solving for Ux, Initial residual = 0.00222414, Final residual = 5.00644e-05, No Iterations 2
smoothSolver:  Solving for Uy, Initial residual = 0.00259016, Final residual = 0.000106283, No Iterations 2
GAMG:  Solving for p, Initial residual = 0.401796, Final residual = 0.0263299, No Iterations 3
time step continuity errors : sum local = 2.34923e-07, global = -3.03661e-19, cumulative = -1.16395e-17
ExecutionTime = 494.23 s  ClockTime = 494 s

forces forces write:
    sum of forces:
        pressure : (1.32106e-07 1.29625e-05 1.04269e-25)
        viscous  : (1.13627e-06 4.40144e-07 -4.20427e-26)
        porous   : (0 0 0)
    sum of moments:
        pressure : (-1.94437e-06 1.98159e-08 -2.31718e-06)
        viscous  : (-6.60216e-08 1.70441e-07 -1.41608e-07)
        porous   : (0 0 0)

Time = 3653

smoothSolver:  Solving for Ux, Initial residual = 0.00221536, Final residual = 4.88104e-05, No Iterations 2
smoothSolver:  Solving for Uy, Initial residual = 0.00255951, Final residual = 0.000102275, No Iterations 2
GAMG:  Solving for p, Initial residual = 0.402776, Final residual = 0.0270522, No Iterations 3
time step continuity errors : sum local = 2.42133e-07, global = -4.81948e-20, cumulative = -1.16877e-17
ExecutionTime = 494.37 s  ClockTime = 494 s

forces forces write:
    sum of forces:
        pressure : (1.33271e-07 1.29361e-05 1.03926e-25)
        viscous  : (1.13625e-06 4.40128e-07 -4.21038e-26)
        porous   : (0 0 0)
    sum of moments:
        pressure : (-1.94041e-06 1.99906e-08 -2.31664e-06)
        viscous  : (-6.60192e-08 1.70437e-07 -1.41606e-07)
        porous   : (0 0 0)

Time = 3654

smoothSolver:  Solving for Ux, Initial residual = 0.00219962, Final residual = 4.77562e-05, No Iterations 2
smoothSolver:  Solving for Uy, Initial residual = 0.00253215, Final residual = 9.90311e-05, No Iterations 2
GAMG:  Solving for p, Initial residual = 0.401804, Final residual = 0.0339378, No Iterations 3
time step continuity errors : sum local = 3.04874e-07, global = -8.46948e-19, cumulative = -1.25346e-17
ExecutionTime = 494.5 s  ClockTime = 495 s

forces forces write:
    sum of forces:
        pressure : (1.3321e-07 1.29155e-05 1.02917e-25)
        viscous  : (1.13621e-06 4.40123e-07 -4.2126e-26)
        porous   : (0 0 0)
    sum of moments:
        pressure : (-1.93732e-06 1.99815e-08 -2.31847e-06)
        viscous  : (-6.60184e-08 1.70432e-07 -1.41603e-07)
        porous   : (0 0 0)

Time = 3655

smoothSolver:  Solving for Ux, Initial residual = 0.00218303, Final residual = 4.71651e-05, No Iterations 2
smoothSolver:  Solving for Uy, Initial residual = 0.00250743, Final residual = 9.69912e-05, No Iterations 2
GAMG:  Solving for p, Initial residual = 0.39755, Final residual = 0.0275012, No Iterations 5
time step continuity errors : sum local = 2.48194e-07, global = 2.9159e-19, cumulative = -1.22431e-17
ExecutionTime = 494.65 s  ClockTime = 495 s

forces forces write:
    sum of forces:
        pressure : (1.21877e-07 1.27913e-05 9.64176e-26)
        viscous  : (1.13621e-06 4.40122e-07 -4.06002e-26)
        porous   : (0 0 0)
    sum of moments:
        pressure : (-1.91869e-06 1.82815e-08 -2.33219e-06)
        viscous  : (-6.60183e-08 1.70431e-07 -1.41598e-07)
        porous   : (0 0 0)

Time = 3656

smoothSolver:  Solving for Ux, Initial residual = 0.00218423, Final residual = 4.75113e-05, No Iterations 2
smoothSolver:  Solving for Uy, Initial residual = 0.00250934, Final residual = 9.66442e-05, No Iterations 2
GAMG:  Solving for p, Initial residual = 0.394119, Final residual = 0.0358077, No Iterations 2
time step continuity errors : sum local = 3.26227e-07, global = -1.88442e-19, cumulative = -1.24315e-17
ExecutionTime = 494.78 s  ClockTime = 495 s

forces forces write:
    sum of forces:
        pressure : (1.20766e-07 1.27837e-05 9.59633e-26)
        viscous  : (1.13622e-06 4.4012e-07 -4.04815e-26)
        porous   : (0 0 0)
    sum of moments:
        pressure : (-1.91755e-06 1.81149e-08 -2.33302e-06)
        viscous  : (-6.6018e-08 1.70433e-07 -1.41595e-07)
        porous   : (0 0 0)

Time = 3657

smoothSolver:  Solving for Ux, Initial residual = 0.00215879, Final residual = 4.74937e-05, No Iterations 2
smoothSolver:  Solving for Uy, Initial residual = 0.00247662, Final residual = 9.52018e-05, No Iterations 2
GAMG:  Solving for p, Initial residual = 0.400256, Final residual = 0.0237248, No Iterations 3
time step continuity errors : sum local = 2.20544e-07, global = -8.65742e-19, cumulative = -1.32972e-17
ExecutionTime = 494.91 s  ClockTime = 495 s

forces forces write:
    sum of forces:
        pressure : (1.1986e-07 1.27795e-05 9.5597e-26)
        viscous  : (1.13624e-06 4.4012e-07 -4.03187e-26)
        porous   : (0 0 0)
    sum of moments:
        pressure : (-1.91692e-06 1.79789e-08 -2.3322e-06)
        viscous  : (-6.6018e-08 1.70436e-07 -1.4159e-07)
        porous   : (0 0 0)

Time = 3658

smoothSolver:  Solving for Ux, Initial residual = 0.00214509, Final residual = 4.74047e-05, No Iterations 2
smoothSolver:  Solving for Uy, Initial residual = 0.00245377, Final residual = 9.45732e-05, No Iterations 2
GAMG:  Solving for p, Initial residual = 0.394682, Final residual = 0.0304848, No Iterations 3
time step continuity errors : sum local = 2.88664e-07, global = 2.83371e-19, cumulative = -1.30139e-17
ExecutionTime = 495.05 s  ClockTime = 495 s

forces forces write:
    sum of forces:
        pressure : (1.21197e-07 1.27948e-05 9.59919e-26)
        viscous  : (1.13627e-06 4.40122e-07 -4.04583e-26)
        porous   : (0 0 0)
    sum of moments:
        pressure : (-1.91922e-06 1.81795e-08 -2.3291e-06)
        viscous  : (-6.60183e-08 1.7044e-07 -1.41582e-07)
        porous   : (0 0 0)

Time = 3659

smoothSolver:  Solving for Ux, Initial residual = 0.0021294, Final residual = 4.80343e-05, No Iterations 2
smoothSolver:  Solving for Uy, Initial residual = 0.00243825, Final residual = 9.45043e-05, No Iterations 2
GAMG:  Solving for p, Initial residual = 0.389654, Final residual = 0.0330449, No Iterations 3
time step continuity errors : sum local = 3.17201e-07, global = -4.08376e-19, cumulative = -1.34222e-17
ExecutionTime = 495.18 s  ClockTime = 495 s

forces forces write:
    sum of forces:
        pressure : (1.24572e-07 1.28314e-05 9.71357e-26)
        viscous  : (1.13629e-06 4.40129e-07 -4.10285e-26)
        porous   : (0 0 0)
    sum of moments:
        pressure : (-1.92472e-06 1.86858e-08 -2.32527e-06)
        viscous  : (-6.60194e-08 1.70444e-07 -1.41575e-07)
        porous   : (0 0 0)

Time = 3660

smoothSolver:  Solving for Ux, Initial residual = 0.00211912, Final residual = 4.95424e-05, No Iterations 2
smoothSolver:  Solving for Uy, Initial residual = 0.00242622, Final residual = 9.49472e-05, No Iterations 2
GAMG:  Solving for p, Initial residual = 0.394205, Final residual = 0.0299495, No Iterations 3
time step continuity errors : sum local = 2.91206e-07, global = 2.78268e-19, cumulative = -1.3144e-17
ExecutionTime = 495.32 s  ClockTime = 495 s

forces forces write:
    sum of forces:
        pressure : (1.27932e-07 1.28725e-05 9.84166e-26)
        viscous  : (1.1363e-06 4.40143e-07 -4.17886e-26)
        porous   : (0 0 0)
    sum of moments:
        pressure : (-1.93088e-06 1.91898e-08 -2.32285e-06)
        viscous  : (-6.60214e-08 1.70446e-07 -1.4157e-07)
        porous   : (0 0 0)

Time = 3661

smoothSolver:  Solving for Ux, Initial residual = 0.0021136, Final residual = 5.12148e-05, No Iterations 2
smoothSolver:  Solving for Uy, Initial residual = 0.00241612, Final residual = 9.54389e-05, No Iterations 2
GAMG:  Solving for p, Initial residual = 0.398042, Final residual = 0.0265847, No Iterations 3
time step continuity errors : sum local = 2.63926e-07, global = 3.72729e-21, cumulative = -1.31402e-17
ExecutionTime = 495.46 s  ClockTime = 496 s

forces forces write:
    sum of forces:
        pressure : (1.29976e-07 1.29029e-05 9.93655e-26)
        viscous  : (1.1363e-06 4.40155e-07 -4.24519e-26)
        porous   : (0 0 0)
    sum of moments:
        pressure : (-1.93543e-06 1.94964e-08 -2.32228e-06)
        viscous  : (-6.60233e-08 1.70446e-07 -1.41569e-07)
        porous   : (0 0 0)

Time = 3662

smoothSolver:  Solving for Ux, Initial residual = 0.00210538, Final residual = 5.26175e-05, No Iterations 2
smoothSolver:  Solving for Uy, Initial residual = 0.00241108, Final residual = 9.62594e-05, No Iterations 2
GAMG:  Solving for p, Initial residual = 0.406712, Final residual = 0.0267903, No Iterations 3
time step continuity errors : sum local = 2.72851e-07, global = -4.16769e-19, cumulative = -1.3557e-17
ExecutionTime = 495.59 s  ClockTime = 496 s

forces forces write:
    sum of forces:
        pressure : (1.30545e-07 1.2914e-05 9.97678e-26)
        viscous  : (1.13629e-06 4.40157e-07 -4.28394e-26)
        porous   : (0 0 0)
    sum of moments:
        pressure : (-1.9371e-06 1.95817e-08 -2.32317e-06)
        viscous  : (-6.60235e-08 1.70444e-07 -1.41573e-07)
        porous   : (0 0 0)

Time = 3663

smoothSolver:  Solving for Ux, Initial residual = 0.00209871, Final residual = 5.36974e-05, No Iterations 2
smoothSolver:  Solving for Uy, Initial residual = 0.0024149, Final residual = 9.79876e-05, No Iterations 2
GAMG:  Solving for p, Initial residual = 0.410651, Final residual = 0.0293711, No Iterations 3
time step continuity errors : sum local = 3.08795e-07, global = -4.43257e-19, cumulative = -1.40003e-17
ExecutionTime = 495.73 s  ClockTime = 496 s

forces forces write:
    sum of forces:
        pressure : (1.3054e-07 1.2903e-05 9.95927e-26)
        viscous  : (1.13627e-06 4.40139e-07 -4.28404e-26)
        porous   : (0 0 0)
    sum of moments:
        pressure : (-1.93545e-06 1.95811e-08 -2.32434e-06)
        viscous  : (-6.60208e-08 1.70441e-07 -1.41578e-07)
        porous   : (0 0 0)

Time = 3664

smoothSolver:  Solving for Ux, Initial residual = 0.0020971, Final residual = 5.45432e-05, No Iterations 2
smoothSolver:  Solving for Uy, Initial residual = 0.00242592, Final residual = 0.000100439, No Iterations 2
GAMG:  Solving for p, Initial residual = 0.411466, Final residual = 0.030791, No Iterations 3
time step continuity errors : sum local = 3.33166e-07, global = 2.018e-19, cumulative = -1.37985e-17
ExecutionTime = 495.85 s  ClockTime = 496 s

forces forces write:
    sum of forces:
        pressure : (1.31353e-07 1.2878e-05 9.90605e-26)
        viscous  : (1.13626e-06 4.40104e-07 -4.25156e-26)
        porous   : (0 0 0)
    sum of moments:
        pressure : (-1.93171e-06 1.97029e-08 -2.32425e-06)
        viscous  : (-6.60156e-08 1.70439e-07 -1.41582e-07)
        porous   : (0 0 0)

Time = 3665

smoothSolver:  Solving for Ux, Initial residual = 0.00209671, Final residual = 5.56738e-05, No Iterations 2
smoothSolver:  Solving for Uy, Initial residual = 0.0024387, Final residual = 0.000103871, No Iterations 2
GAMG:  Solving for p, Initial residual = 0.413797, Final residual = 0.0292439, No Iterations 3
time step continuity errors : sum local = 3.26229e-07, global = -2.91978e-19, cumulative = -1.40904e-17
ExecutionTime = 495.98 s  ClockTime = 496 s

forces forces write:
    sum of forces:
        pressure : (1.33974e-07 1.28579e-05 9.86444e-26)
        viscous  : (1.13625e-06 4.40068e-07 -4.21314e-26)
        porous   : (0 0 0)
    sum of moments:
        pressure : (-1.92869e-06 2.00961e-08 -2.32195e-06)
        viscous  : (-6.60102e-08 1.70438e-07 -1.4158e-07)
        porous   : (0 0 0)

Time = 3666

smoothSolver:  Solving for Ux, Initial residual = 0.00209989, Final residual = 5.70627e-05, No Iterations 2
smoothSolver:  Solving for Uy, Initial residual = 0.00245373, Final residual = 0.000107577, No Iterations 2
GAMG:  Solving for p, Initial residual = 0.421042, Final residual = 0.0268413, No Iterations 3
time step continuity errors : sum local = 3.08014e-07, global = 1.53926e-19, cumulative = -1.39365e-17
ExecutionTime = 496.13 s  ClockTime = 496 s

forces forces write:
    sum of forces:
        pressure : (1.385e-07 1.28612e-05 9.88147e-26)
        viscous  : (1.13626e-06 4.40049e-07 -4.19749e-26)
        porous   : (0 0 0)
    sum of moments:
        pressure : (-1.92918e-06 2.07749e-08 -2.31756e-06)
        viscous  : (-6.60074e-08 1.70439e-07 -1.41575e-07)
        porous   : (0 0 0)

Time = 3667

smoothSolver:  Solving for Ux, Initial residual = 0.00210456, Final residual = 5.85181e-05, No Iterations 2
smoothSolver:  Solving for Uy, Initial residual = 0.00246553, Final residual = 0.000110924, No Iterations 2
GAMG:  Solving for p, Initial residual = 0.424001, Final residual = 0.0252811, No Iterations 3
time step continuity errors : sum local = 2.99644e-07, global = -1.33459e-19, cumulative = -1.407e-17
ExecutionTime = 496.26 s  ClockTime = 496 s

