/*---------------------------------------------------------------------------*\
| =========                 |                                                 |
| \\      /  F ield         | OpenFOAM: The Open Source CFD Toolbox           |
|  \\    /   O peration     | Version:  5.x                                   |
|   \\  /    A nd           | Web:      www.OpenFOAM.org                      |
|    \\/     M anipulation  |                                                 |
\*---------------------------------------------------------------------------*/
Build  : 5.x-68e8507efb72
Exec   : simpleFoam
Date   : Jun 22 2022
Time   : 08:51:31
Host   : "Desktop-PC"
PID    : 2596
I/O    : uncollated
Case   : /home/emilio/code/flow-separation-prediction/openfoam/run/Airfoil2D_full
nProcs : 1
sigFpe : Enabling floating point exception trapping (FOAM_SIGFPE).
fileModificationChecking : Monitoring run-time modified files using timeStampMaster (fileModificationSkew 10)
allowSystemOperations : Allowing user-supplied system call operations

// * * * * * * * * * * * * * * * * * * * * * * * * * * * * * * * * * * * * * //
Create time

Create mesh for time = 0


SIMPLE: convergence criteria
    field p	 tolerance 1e-05
    field U	 tolerance 1e-07
    field nuTilda	 tolerance 1e-07

Reading field p

Reading field U

Reading/calculating face flux field phi

Selecting incompressible transport model Newtonian
Selecting turbulence model type laminar
Selecting laminar stress model Stokes
No MRF models present

No finite volume options present


Starting time loop

forces forces:
    Not including porosity effects
forces forceCoeffs:
    Not including porosity effects
forceCoeffs forceCoeffs:
    Not including porosity effects
Time = 1

smoothSolver:  Solving for Ux, Initial residual = 1, Final residual = 0.0637828, No Iterations 2
smoothSolver:  Solving for Uy, Initial residual = 1, Final residual = 0.0701261, No Iterations 2
GAMG:  Solving for p, Initial residual = 1, Final residual = 0.0919525, No Iterations 12
time step continuity errors : sum local = 8.89004e-07, global = 2.52299e-20, cumulative = 2.52299e-20
ExecutionTime = 1.72 s  ClockTime = 2 s

forces forces write:
    sum of forces:
        pressure : (0.000611465 0.00366107 1.44293e-22)
        viscous  : (0.000704885 0.000228185 -3.90954e-23)
        porous   : (0 0 0)
    sum of moments:
        pressure : (-0.00054916 9.17197e-05 0.000120011)
        viscous  : (-3.42277e-05 0.000105733 -2.96551e-05)
        porous   : (0 0 0)

Time = 2

smoothSolver:  Solving for Ux, Initial residual = 0.328775, Final residual = 0.0119381, No Iterations 4
smoothSolver:  Solving for Uy, Initial residual = 0.42632, Final residual = 0.0265536, No Iterations 4
GAMG:  Solving for p, Initial residual = 0.868594, Final residual = 0.0690382, No Iterations 9
time step continuity errors : sum local = 1.18673e-06, global = 5.72437e-19, cumulative = 5.97667e-19
ExecutionTime = 2.35 s  ClockTime = 3 s

forces forces write:
    sum of forces:
        pressure : (0.000423999 0.00267852 1.16491e-22)
        viscous  : (0.000393025 -4.79116e-06 -3.12852e-23)
        porous   : (0 0 0)
    sum of moments:
        pressure : (-0.000401778 6.35998e-05 7.87214e-05)
        viscous  : (7.18673e-07 5.89537e-05 -2.07012e-05)
        porous   : (0 0 0)

Time = 3

smoothSolver:  Solving for Ux, Initial residual = 0.128646, Final residual = 0.00479125, No Iterations 4
smoothSolver:  Solving for Uy, Initial residual = 0.128202, Final residual = 0.00805262, No Iterations 4
GAMG:  Solving for p, Initial residual = 0.789109, Final residual = 0.0617775, No Iterations 13
time step continuity errors : sum local = 1.35839e-06, global = 2.62901e-19, cumulative = 8.60568e-19
ExecutionTime = 3.11 s  ClockTime = 3 s

forces forces write:
    sum of forces:
        pressure : (-9.60457e-05 -0.000393668 -5.94339e-24)
        viscous  : (0.000259271 -8.6084e-05 2.03019e-24)
        porous   : (0 0 0)
    sum of moments:
        pressure : (5.90503e-05 -1.44069e-05 -2.57316e-05)
        viscous  : (1.29126e-05 3.88906e-05 -1.65165e-05)
        porous   : (0 0 0)

Time = 4

smoothSolver:  Solving for Ux, Initial residual = 0.0385299, Final residual = 0.00157764, No Iterations 4
smoothSolver:  Solving for Uy, Initial residual = 0.0240443, Final residual = 0.00146439, No Iterations 4
GAMG:  Solving for p, Initial residual = 0.851791, Final residual = 0.0541544, No Iterations 12
time step continuity errors : sum local = 1.01567e-06, global = -1.83592e-20, cumulative = 8.42209e-19
ExecutionTime = 3.92 s  ClockTime = 4 s

forces forces write:
    sum of forces:
        pressure : (-0.000350492 -0.00208465 -8.07179e-23)
        viscous  : (0.000202227 -5.90604e-05 2.21699e-23)
        porous   : (0 0 0)
    sum of moments:
        pressure : (0.000312697 -5.25738e-05 -7.56859e-05)
        viscous  : (8.85907e-06 3.0334e-05 -1.2962e-05)
        porous   : (0 0 0)

Time = 5

smoothSolver:  Solving for Ux, Initial residual = 0.0859581, Final residual = 0.00372886, No Iterations 4
smoothSolver:  Solving for Uy, Initial residual = 0.117402, Final residual = 0.00758449, No Iterations 4
GAMG:  Solving for p, Initial residual = 0.885241, Final residual = 0.0869749, No Iterations 8
time step continuity errors : sum local = 1.78714e-06, global = -1.2454e-19, cumulative = 7.17669e-19
ExecutionTime = 4.51 s  ClockTime = 5 s

forces forces write:
    sum of forces:
        pressure : (-0.000191945 -0.00131677 -5.85684e-23)
        viscous  : (0.000176533 1.6222e-06 1.58566e-23)
        porous   : (0 0 0)
    sum of moments:
        pressure : (0.000197515 -2.87917e-05 -4.247e-05)
        viscous  : (-2.43331e-07 2.648e-05 -9.68796e-06)
        porous   : (0 0 0)

Time = 6

smoothSolver:  Solving for Ux, Initial residual = 0.0765748, Final residual = 0.00274095, No Iterations 4
smoothSolver:  Solving for Uy, Initial residual = 0.120156, Final residual = 0.00727588, No Iterations 4
GAMG:  Solving for p, Initial residual = 0.749784, Final residual = 0.0641292, No Iterations 13
time step continuity errors : sum local = 1.2227e-06, global = 4.88916e-19, cumulative = 1.20658e-18
ExecutionTime = 5.24 s  ClockTime = 6 s

forces forces write:
    sum of forces:
        pressure : (8.90006e-05 0.000414164 -1.03784e-25)
        viscous  : (0.000158782 3.31685e-05 -7.25456e-25)
        porous   : (0 0 0)
    sum of moments:
        pressure : (-6.21246e-05 1.33501e-05 1.91251e-05)
        viscous  : (-4.97528e-06 2.38173e-05 -7.45896e-06)
        porous   : (0 0 0)

Time = 7

smoothSolver:  Solving for Ux, Initial residual = 0.040601, Final residual = 0.00192694, No Iterations 4
smoothSolver:  Solving for Uy, Initial residual = 0.050449, Final residual = 0.00320925, No Iterations 4
GAMG:  Solving for p, Initial residual = 0.867158, Final residual = 0.0821503, No Iterations 11
time step continuity errors : sum local = 1.50282e-06, global = -3.36484e-19, cumulative = 8.70101e-19
ExecutionTime = 5.99 s  ClockTime = 6 s

forces forces write:
    sum of forces:
        pressure : (0.000188805 0.00120621 3.42503e-23)
        viscous  : (0.000140954 2.32895e-05 -1.02815e-23)
        porous   : (0 0 0)
    sum of moments:
        pressure : (-0.000180931 2.83208e-05 4.20362e-05)
        viscous  : (-3.49342e-06 2.11431e-05 -6.55712e-06)
        porous   : (0 0 0)

Time = 8

smoothSolver:  Solving for Ux, Initial residual = 0.053238, Final residual = 0.00239432, No Iterations 4
smoothSolver:  Solving for Uy, Initial residual = 0.088079, Final residual = 0.00577899, No Iterations 4
GAMG:  Solving for p, Initial residual = 0.889282, Final residual = 0.0450639, No Iterations 8
time step continuity errors : sum local = 7.86507e-07, global = 4.18267e-20, cumulative = 9.11927e-19
ExecutionTime = 6.84 s  ClockTime = 7 s

forces forces write:
    sum of forces:
        pressure : (7.86934e-05 0.000645062 2.67603e-23)
        viscous  : (0.000124292 -1.59401e-06 -7.62506e-24)
        porous   : (0 0 0)
    sum of moments:
        pressure : (-9.67593e-05 1.1804e-05 1.66838e-05)
        viscous  : (2.39101e-07 1.86438e-05 -6.46337e-06)
        porous   : (0 0 0)

Time = 9

smoothSolver:  Solving for Ux, Initial residual = 0.0384491, Final residual = 0.00139158, No Iterations 4
smoothSolver:  Solving for Uy, Initial residual = 0.0426602, Final residual = 0.00243632, No Iterations 4
GAMG:  Solving for p, Initial residual = 0.792302, Final residual = 0.0464341, No Iterations 12
time step continuity errors : sum local = 7.17672e-07, global = -6.06449e-20, cumulative = 8.51283e-19
ExecutionTime = 7.67 s  ClockTime = 8 s

forces forces write:
    sum of forces:
        pressure : (-6.58557e-05 -0.0003194 1.71621e-24)
        viscous  : (0.000111945 -1.37038e-05 9.01386e-26)
        porous   : (0 0 0)
    sum of moments:
        pressure : (4.791e-05 -9.87835e-06 -1.8926e-05)
        viscous  : (2.05557e-06 1.67918e-05 -6.4114e-06)
        porous   : (0 0 0)

Time = 10

smoothSolver:  Solving for Ux, Initial residual = 0.0218321, Final residual = 0.000995066, No Iterations 4
smoothSolver:  Solving for Uy, Initial residual = 0.0232671, Final residual = 0.00149263, No Iterations 4
GAMG:  Solving for p, Initial residual = 0.847178, Final residual = 0.0720581, No Iterations 9
time step continuity errors : sum local = 1.09887e-06, global = 2.17862e-19, cumulative = 1.06914e-18
ExecutionTime = 8.28 s  ClockTime = 9 s

forces forces write:
    sum of forces:
        pressure : (-9.68843e-05 -0.000670169 -6.23766e-24)
        viscous  : (0.0001043 -7.5354e-06 2.86896e-24)
        porous   : (0 0 0)
    sum of moments:
        pressure : (0.000100525 -1.45326e-05 -2.85582e-05)
        viscous  : (1.13031e-06 1.56451e-05 -6.00617e-06)
        porous   : (0 0 0)

Time = 11

smoothSolver:  Solving for Ux, Initial residual = 0.028148, Final residual = 0.00120581, No Iterations 4
smoothSolver:  Solving for Uy, Initial residual = 0.0460844, Final residual = 0.00299717, No Iterations 4
GAMG:  Solving for p, Initial residual = 0.852682, Final residual = 0.0471139, No Iterations 8
time step continuity errors : sum local = 6.48911e-07, global = -8.04367e-20, cumulative = 9.88707e-19
ExecutionTime = 8.86 s  ClockTime = 9 s

forces forces write:
    sum of forces:
        pressure : (-2.93395e-05 -0.00028942 -4.91523e-24)
        viscous  : (9.91142e-05 4.33223e-06 1.85372e-24)
        porous   : (0 0 0)
    sum of moments:
        pressure : (4.3413e-05 -4.40092e-06 -1.18684e-05)
        viscous  : (-6.49834e-07 1.48671e-05 -5.36711e-06)
        porous   : (0 0 0)

Time = 12

smoothSolver:  Solving for Ux, Initial residual = 0.0232865, Final residual = 0.000767129, No Iterations 4
smoothSolver:  Solving for Uy, Initial residual = 0.0290752, Final residual = 0.00154852, No Iterations 4
GAMG:  Solving for p, Initial residual = 0.80506, Final residual = 0.0581408, No Iterations 11
time step continuity errors : sum local = 7.1186e-07, global = 1.32932e-19, cumulative = 1.12164e-18
ExecutionTime = 9.67 s  ClockTime = 10 s

forces forces write:
    sum of forces:
        pressure : (4.24801e-05 0.000239025 8.42213e-24)
        viscous  : (9.4059e-05 9.1642e-06 -2.36133e-24)
        porous   : (0 0 0)
    sum of moments:
        pressure : (-3.58537e-05 6.37201e-06 7.95546e-06)
        viscous  : (-1.37463e-06 1.41088e-05 -4.82178e-06)
        porous   : (0 0 0)

Time = 13

smoothSolver:  Solving for Ux, Initial residual = 0.0167964, Final residual = 0.000865085, No Iterations 4
smoothSolver:  Solving for Uy, Initial residual = 0.020598, Final residual = 0.00135938, No Iterations 4
GAMG:  Solving for p, Initial residual = 0.834495, Final residual = 0.0821536, No Iterations 9
time step continuity errors : sum local = 9.20526e-07, global = 3.13069e-19, cumulative = 1.43471e-18
ExecutionTime = 10.29 s  ClockTime = 11 s

forces forces write:
    sum of forces:
        pressure : (4.89402e-05 0.000380032 1.12694e-23)
        viscous  : (8.84133e-05 5.25521e-06 -3.4479e-24)
        porous   : (0 0 0)
    sum of moments:
        pressure : (-5.70048e-05 7.34103e-06 1.17063e-05)
        viscous  : (-7.88281e-07 1.3262e-05 -4.54613e-06)
        porous   : (0 0 0)

Time = 14

smoothSolver:  Solving for Ux, Initial residual = 0.0190348, Final residual = 0.000885283, No Iterations 4
smoothSolver:  Solving for Uy, Initial residual = 0.0268764, Final residual = 0.00172479, No Iterations 4
GAMG:  Solving for p, Initial residual = 0.869318, Final residual = 0.0605066, No Iterations 8
time step continuity errors : sum local = 6.10565e-07, global = 2.35412e-19, cumulative = 1.67012e-18
ExecutionTime = 10.87 s  ClockTime = 11 s

forces forces write:
    sum of forces:
        pressure : (5.5866e-06 0.00013251 -9.4931e-25)
        viscous  : (8.30868e-05 -6.99746e-07 -2.18094e-25)
        porous   : (0 0 0)
    sum of moments:
        pressure : (-1.98765e-05 8.3799e-07 1.411e-06)
        viscous  : (1.04962e-07 1.2463e-05 -4.45796e-06)
        porous   : (0 0 0)

Time = 15

smoothSolver:  Solving for Ux, Initial residual = 0.0154465, Final residual = 0.00059678, No Iterations 4
smoothSolver:  Solving for Uy, Initial residual = 0.0124288, Final residual = 0.000582136, No Iterations 4
GAMG:  Solving for p, Initial residual = 0.809779, Final residual = 0.0798561, No Iterations 8
time step continuity errors : sum local = 7.06792e-07, global = -5.95637e-19, cumulative = 1.07448e-18
ExecutionTime = 11.6 s  ClockTime = 12 s

forces forces write:
    sum of forces:
        pressure : (-2.93079e-05 -0.000149956 -7.89469e-24)
        viscous  : (7.89406e-05 -2.64811e-06 2.02455e-24)
        porous   : (0 0 0)
    sum of moments:
        pressure : (2.24934e-05 -4.39618e-06 -9.25608e-06)
        viscous  : (3.97217e-07 1.18411e-05 -4.37049e-06)
        porous   : (0 0 0)

Time = 16

smoothSolver:  Solving for Ux, Initial residual = 0.0107987, Final residual = 0.000534852, No Iterations 4
smoothSolver:  Solving for Uy, Initial residual = 0.0129377, Final residual = 0.000812092, No Iterations 4
GAMG:  Solving for p, Initial residual = 0.817608, Final residual = 0.0555795, No Iterations 9
time step continuity errors : sum local = 4.54007e-07, global = -6.79364e-19, cumulative = 3.95119e-19
ExecutionTime = 12.32 s  ClockTime = 13 s

forces forces write:
    sum of forces:
        pressure : (-2.81337e-05 -0.000196306 -8.64101e-24)
        viscous  : (7.58999e-05 -3.33062e-07 2.3247e-24)
        porous   : (0 0 0)
    sum of moments:
        pressure : (2.94459e-05 -4.22005e-06 -1.07488e-05)
        viscous  : (4.99593e-08 1.1385e-05 -4.18331e-06)
        porous   : (0 0 0)

Time = 17

smoothSolver:  Solving for Ux, Initial residual = 0.0115567, Final residual = 0.000511477, No Iterations 4
smoothSolver:  Solving for Uy, Initial residual = 0.0163753, Final residual = 0.0010254, No Iterations 4
GAMG:  Solving for p, Initial residual = 0.830976, Final residual = 0.0828128, No Iterations 8
time step continuity errors : sum local = 6.45565e-07, global = -2.47758e-19, cumulative = 1.47361e-19
ExecutionTime = 13.09 s  ClockTime = 13 s

forces forces write:
    sum of forces:
        pressure : (-4.40808e-06 -4.09898e-05 -4.56648e-24)
        viscous  : (7.33441e-05 2.57544e-06 1.02991e-24)
        porous   : (0 0 0)
    sum of moments:
        pressure : (6.14847e-06 -6.61212e-07 -4.80301e-06)
        viscous  : (-3.86316e-07 1.10016e-05 -3.93501e-06)
        porous   : (0 0 0)

Time = 18

smoothSolver:  Solving for Ux, Initial residual = 0.0102039, Final residual = 0.000427502, No Iterations 4
smoothSolver:  Solving for Uy, Initial residual = 0.0078321, Final residual = 0.000341769, No Iterations 4
GAMG:  Solving for p, Initial residual = 0.77332, Final residual = 0.0506114, No Iterations 12
time step continuity errors : sum local = 3.36977e-07, global = 8.82072e-20, cumulative = 2.35568e-19
ExecutionTime = 13.79 s  ClockTime = 14 s

forces forces write:
    sum of forces:
        pressure : (1.42937e-05 0.000107857 3.48777e-24)
        viscous  : (7.06854e-05 3.18801e-06 -1.11715e-24)
        porous   : (0 0 0)
    sum of moments:
        pressure : (-1.61785e-05 2.14405e-06 8.63013e-07)
        viscous  : (-4.78202e-07 1.06028e-05 -3.72009e-06)
        porous   : (0 0 0)

Time = 19

smoothSolver:  Solving for Ux, Initial residual = 0.00870361, Final residual = 0.000494723, No Iterations 4
smoothSolver:  Solving for Uy, Initial residual = 0.00916421, Final residual = 0.000565759, No Iterations 4
GAMG:  Solving for p, Initial residual = 0.798376, Final residual = 0.061489, No Iterations 9
time step continuity errors : sum local = 3.73486e-07, global = 1.75028e-19, cumulative = 4.10596e-19
ExecutionTime = 14.43 s  ClockTime = 15 s

forces forces write:
    sum of forces:
        pressure : (1.27876e-05 0.000114854 6.2272e-24)
        viscous  : (6.78279e-05 1.71928e-06 -1.71034e-24)
        porous   : (0 0 0)
    sum of moments:
        pressure : (-1.72281e-05 1.91814e-06 1.39936e-06)
        viscous  : (-2.57891e-07 1.01742e-05 -3.58473e-06)
        porous   : (0 0 0)

Time = 20

smoothSolver:  Solving for Ux, Initial residual = 0.00898177, Final residual = 0.000459053, No Iterations 4
smoothSolver:  Solving for Uy, Initial residual = 0.00892521, Final residual = 0.000520226, No Iterations 4
GAMG:  Solving for p, Initial residual = 0.814233, Final residual = 0.0747597, No Iterations 7
time step continuity errors : sum local = 4.23263e-07, global = 2.63349e-21, cumulative = 4.1323e-19
ExecutionTime = 15.1 s  ClockTime = 15 s

forces forces write:
    sum of forces:
        pressure : (-4.64776e-07 2.00784e-05 3.80693e-24)
        viscous  : (6.50983e-05 2.00787e-07 -9.01046e-25)
        porous   : (0 0 0)
    sum of moments:
        pressure : (-3.01176e-06 -6.97165e-08 -1.94184e-06)
        viscous  : (-3.01181e-08 9.76475e-06 -3.50118e-06)
        porous   : (0 0 0)

Time = 21

smoothSolver:  Solving for Ux, Initial residual = 0.00759678, Final residual = 0.000363339, No Iterations 4
smoothSolver:  Solving for Uy, Initial residual = 0.0041687, Final residual = 0.000141994, No Iterations 4
GAMG:  Solving for p, Initial residual = 0.759605, Final residual = 0.0570842, No Iterations 11
time step continuity errors : sum local = 2.80062e-07, global = -3.82547e-19, cumulative = 3.0683e-20
ExecutionTime = 16.13 s  ClockTime = 16 s

forces forces write:
    sum of forces:
        pressure : (-9.13161e-06 -5.58401e-05 2.00204e-24)
        viscous  : (6.27388e-05 3.65363e-09 -3.23685e-25)
        porous   : (0 0 0)
    sum of moments:
        pressure : (8.37602e-06 -1.36974e-06 -4.9529e-06)
        viscous  : (-5.48044e-10 9.41082e-06 -3.4155e-06)
        porous   : (0 0 0)

Time = 22

smoothSolver:  Solving for Ux, Initial residual = 0.00628221, Final residual = 0.000341468, No Iterations 4
smoothSolver:  Solving for Uy, Initial residual = 0.00616963, Final residual = 0.000360973, No Iterations 4
GAMG:  Solving for p, Initial residual = 0.774178, Final residual = 0.0503658, No Iterations 7
time step continuity errors : sum local = 2.34306e-07, global = -3.71575e-19, cumulative = -3.40892e-19
ExecutionTime = 16.72 s  ClockTime = 17 s

forces forces write:
    sum of forces:
        pressure : (-8.10989e-06 -4.8521e-05 -6.84484e-25)
        viscous  : (6.07345e-05 8.2249e-07 2.05206e-25)
        porous   : (0 0 0)
    sum of moments:
        pressure : (7.27816e-06 -1.21648e-06 -5.14155e-06)
        viscous  : (-1.23373e-07 9.11017e-06 -3.30327e-06)
        porous   : (0 0 0)

Time = 23

smoothSolver:  Solving for Ux, Initial residual = 0.00616772, Final residual = 0.000315249, No Iterations 4
smoothSolver:  Solving for Uy, Initial residual = 0.00595672, Final residual = 0.000344146, No Iterations 4
GAMG:  Solving for p, Initial residual = 0.761683, Final residual = 0.0711024, No Iterations 7
time step continuity errors : sum local = 3.1266e-07, global = 4.71971e-19, cumulative = 1.31079e-19
ExecutionTime = 17.28 s  ClockTime = 18 s

forces forces write:
    sum of forces:
        pressure : (-8.71273e-07 8.02538e-06 7.22851e-25)
        viscous  : (5.89182e-05 1.53194e-06 -2.82047e-25)
        porous   : (0 0 0)
    sum of moments:
        pressure : (-1.20381e-06 -1.30691e-07 -3.32171e-06)
        viscous  : (-2.29792e-07 8.83772e-06 -3.17939e-06)
        porous   : (0 0 0)

Time = 24

smoothSolver:  Solving for Ux, Initial residual = 0.00595009, Final residual = 0.000321378, No Iterations 4
smoothSolver:  Solving for Uy, Initial residual = 0.00361959, Final residual = 0.000154109, No Iterations 4
GAMG:  Solving for p, Initial residual = 0.723321, Final residual = 0.0672662, No Iterations 6
time step continuity errors : sum local = 2.58683e-07, global = -4.55101e-19, cumulative = -3.24022e-19
ExecutionTime = 17.82 s  ClockTime = 18 s

forces forces write:
    sum of forces:
        pressure : (3.3224e-06 4.56965e-05 1.60637e-24)
        viscous  : (5.71329e-05 1.49418e-06 -5.59483e-25)
        porous   : (0 0 0)
    sum of moments:
        pressure : (-6.85447e-06 4.98361e-07 -1.72608e-06)
        viscous  : (-2.24126e-07 8.56993e-06 -3.07078e-06)
        porous   : (0 0 0)

Time = 25

smoothSolver:  Solving for Ux, Initial residual = 0.00543331, Final residual = 0.00032776, No Iterations 4
smoothSolver:  Solving for Uy, Initial residual = 0.00409709, Final residual = 0.000228688, No Iterations 4
GAMG:  Solving for p, Initial residual = 0.750316, Final residual = 0.0724412, No Iterations 7
time step continuity errors : sum local = 2.63656e-07, global = 1.09771e-19, cumulative = -2.14251e-19
ExecutionTime = 18.4 s  ClockTime = 19 s

forces forces write:
    sum of forces:
        pressure : (1.67488e-06 3.57441e-05 1.32529e-24)
        viscous  : (5.54e-05 9.72245e-07 -4.25812e-25)
        porous   : (0 0 0)
    sum of moments:
        pressure : (-5.36162e-06 2.51232e-07 -1.67668e-06)
        viscous  : (-1.45837e-07 8.31e-06 -2.98708e-06)
        porous   : (0 0 0)

Time = 26

smoothSolver:  Solving for Ux, Initial residual = 0.0051894, Final residual = 0.000299855, No Iterations 4
smoothSolver:  Solving for Uy, Initial residual = 0.00326315, Final residual = 0.000152277, No Iterations 4
GAMG:  Solving for p, Initial residual = 0.728279, Final residual = 0.0686873, No Iterations 6
time step continuity errors : sum local = 2.3175e-07, global = 2.84432e-19, cumulative = 7.0181e-20
ExecutionTime = 18.93 s  ClockTime = 19 s

forces forces write:
    sum of forces:
        pressure : (-2.44746e-06 3.08279e-06 5.21017e-25)
        viscous  : (5.37954e-05 5.8581e-07 -1.37469e-25)
        porous   : (0 0 0)
    sum of moments:
        pressure : (-4.62419e-07 -3.67119e-07 -2.72181e-06)
        viscous  : (-8.78714e-08 8.06931e-06 -2.91695e-06)
        porous   : (0 0 0)

Time = 27

smoothSolver:  Solving for Ux, Initial residual = 0.00470596, Final residual = 0.000269519, No Iterations 4
smoothSolver:  Solving for Uy, Initial residual = 0.00251981, Final residual = 9.83425e-05, No Iterations 4
GAMG:  Solving for p, Initial residual = 0.701491, Final residual = 0.0670069, No Iterations 7
time step continuity errors : sum local = 2.05153e-07, global = 3.72599e-19, cumulative = 4.4278e-19
ExecutionTime = 19.52 s  ClockTime = 20 s

forces forces write:
    sum of forces:
        pressure : (-4.50601e-06 -1.43597e-05 1.12412e-25)
        viscous  : (5.23519e-05 6.22204e-07 -1.8381e-26)
        porous   : (0 0 0)
    sum of moments:
        pressure : (2.15395e-06 -6.75901e-07 -3.60576e-06)
        viscous  : (-9.33307e-08 7.85278e-06 -2.84526e-06)
        porous   : (0 0 0)

Time = 28

smoothSolver:  Solving for Ux, Initial residual = 0.00430179, Final residual = 0.000256421, No Iterations 4
smoothSolver:  Solving for Uy, Initial residual = 0.00295125, Final residual = 0.000158081, No Iterations 4
GAMG:  Solving for p, Initial residual = 0.695352, Final residual = 0.0615862, No Iterations 6
time step continuity errors : sum local = 1.80088e-07, global = 4.20569e-19, cumulative = 8.63349e-19
ExecutionTime = 20.06 s  ClockTime = 20 s

forces forces write:
    sum of forces:
        pressure : (-3.34915e-06 -5.49364e-06 3.40758e-25)
        viscous  : (5.10318e-05 8.85519e-07 -1.2927e-25)
        porous   : (0 0 0)
    sum of moments:
        pressure : (8.24046e-07 -5.02373e-07 -3.65604e-06)
        viscous  : (-1.32828e-07 7.65478e-06 -2.76783e-06)
        porous   : (0 0 0)

Time = 29

smoothSolver:  Solving for Ux, Initial residual = 0.00425785, Final residual = 0.000251198, No Iterations 4
smoothSolver:  Solving for Uy, Initial residual = 0.00265927, Final residual = 0.000130264, No Iterations 4
GAMG:  Solving for p, Initial residual = 0.658513, Final residual = 0.0588507, No Iterations 6
time step continuity errors : sum local = 1.6524e-07, global = -5.91432e-19, cumulative = 2.71917e-19
ExecutionTime = 20.6 s  ClockTime = 21 s

forces forces write:
    sum of forces:
        pressure : (-1.05904e-06 1.30716e-05 7.89878e-25)
        viscous  : (4.9774e-05 1.03833e-06 -2.9605e-25)
        porous   : (0 0 0)
    sum of moments:
        pressure : (-1.96074e-06 -1.58856e-07 -3.0692e-06)
        viscous  : (-1.55749e-07 7.46611e-06 -2.6913e-06)
        porous   : (0 0 0)

Time = 30

smoothSolver:  Solving for Ux, Initial residual = 0.00419674, Final residual = 0.000253036, No Iterations 4
smoothSolver:  Solving for Uy, Initial residual = 0.00233526, Final residual = 0.000100323, No Iterations 4
GAMG:  Solving for p, Initial residual = 0.629323, Final residual = 0.0485002, No Iterations 7
time step continuity errors : sum local = 1.26141e-07, global = 2.52452e-19, cumulative = 5.24369e-19
ExecutionTime = 21.31 s  ClockTime = 22 s

forces forces write:
    sum of forces:
        pressure : (-9.82998e-08 2.10217e-05 9.7034e-25)
        viscous  : (4.85483e-05 9.58324e-07 -3.45421e-25)
        porous   : (0 0 0)
    sum of moments:
        pressure : (-3.15325e-06 -1.4745e-08 -2.56385e-06)
        viscous  : (-1.43749e-07 7.28225e-06 -2.62322e-06)
        porous   : (0 0 0)

Time = 31

smoothSolver:  Solving for Ux, Initial residual = 0.0039692, Final residual = 0.000247431, No Iterations 4
smoothSolver:  Solving for Uy, Initial residual = 0.0022637, Final residual = 0.000103832, No Iterations 4
GAMG:  Solving for p, Initial residual = 0.637248, Final residual = 0.0544329, No Iterations 6
time step continuity errors : sum local = 1.30967e-07, global = 2.91709e-19, cumulative = 8.16078e-19
ExecutionTime = 21.85 s  ClockTime = 22 s

forces forces write:
    sum of forces:
        pressure : (-9.15058e-07 1.45368e-05 8.04164e-25)
        viscous  : (4.73653e-05 7.7817e-07 -2.67089e-25)
        porous   : (0 0 0)
    sum of moments:
        pressure : (-2.18052e-06 -1.37259e-07 -2.55287e-06)
        viscous  : (-1.16726e-07 7.1048e-06 -2.56441e-06)
        porous   : (0 0 0)

Time = 32

smoothSolver:  Solving for Ux, Initial residual = 0.00385343, Final residual = 0.00023333, No Iterations 4
smoothSolver:  Solving for Uy, Initial residual = 0.00180689, Final residual = 6.71706e-05, No Iterations 4
GAMG:  Solving for p, Initial residual = 0.618626, Final residual = 0.0521993, No Iterations 6
time step continuity errors : sum local = 1.19427e-07, global = -1.20958e-19, cumulative = 6.9512e-19
ExecutionTime = 22.39 s  ClockTime = 23 s

forces forces write:
    sum of forces:
        pressure : (-2.19288e-06 4.37372e-06 5.575e-25)
        viscous  : (4.62478e-05 6.79826e-07 -1.73257e-25)
        porous   : (0 0 0)
    sum of moments:
        pressure : (-6.56059e-07 -3.28933e-07 -2.91177e-06)
        viscous  : (-1.01974e-07 6.93718e-06 -2.50992e-06)
        porous   : (0 0 0)

Time = 33

smoothSolver:  Solving for Ux, Initial residual = 0.00364586, Final residual = 0.000220809, No Iterations 4
smoothSolver:  Solving for Uy, Initial residual = 0.00181882, Final residual = 7.44358e-05, No Iterations 4
GAMG:  Solving for p, Initial residual = 0.585919, Final residual = 0.0573923, No Iterations 7
time step continuity errors : sum local = 1.22224e-07, global = -1.84593e-19, cumulative = 5.10526e-19
ExecutionTime = 23.15 s  ClockTime = 23 s

forces forces write:
    sum of forces:
        pressure : (-2.82678e-06 1.2794e-06 -2.26216e-25)
        viscous  : (4.52089e-05 7.10843e-07 1.55909e-27)
        porous   : (0 0 0)
    sum of moments:
        pressure : (-1.9191e-07 -4.24017e-07 -3.21507e-06)
        viscous  : (-1.06626e-07 6.78133e-06 -2.45501e-06)
        porous   : (0 0 0)

Time = 34

smoothSolver:  Solving for Ux, Initial residual = 0.00344716, Final residual = 0.000214782, No Iterations 4
smoothSolver:  Solving for Uy, Initial residual = 0.00182218, Final residual = 8.28296e-05, No Iterations 4
GAMG:  Solving for p, Initial residual = 0.566528, Final residual = 0.0454423, No Iterations 6
time step continuity errors : sum local = 9.38878e-08, global = 1.16335e-19, cumulative = 6.26862e-19
ExecutionTime = 23.97 s  ClockTime = 24 s

forces forces write:
    sum of forces:
        pressure : (-2.25688e-06 5.97701e-06 -1.1205e-25)
        viscous  : (4.42338e-05 7.85553e-07 -4.99647e-26)
        porous   : (0 0 0)
    sum of moments:
        pressure : (-8.96551e-07 -3.38532e-07 -3.22289e-06)
        viscous  : (-1.17833e-07 6.63507e-06 -2.39932e-06)
        porous   : (0 0 0)

Time = 35

smoothSolver:  Solving for Ux, Initial residual = 0.0034265, Final residual = 0.000211972, No Iterations 4
smoothSolver:  Solving for Uy, Initial residual = 0.00171772, Final residual = 7.12144e-05, No Iterations 4
GAMG:  Solving for p, Initial residual = 0.541266, Final residual = 0.0507056, No Iterations 5
time step continuity errors : sum local = 1.02628e-07, global = 3.73549e-19, cumulative = 1.00041e-18
ExecutionTime = 24.48 s  ClockTime = 25 s

forces forces write:
    sum of forces:
        pressure : (-1.5404e-06 1.16533e-05 2.09816e-26)
        viscous  : (4.32944e-05 8.07072e-07 -1.0184e-25)
        porous   : (0 0 0)
    sum of moments:
        pressure : (-1.748e-06 -2.3106e-07 -3.02968e-06)
        viscous  : (-1.21061e-07 6.49417e-06 -2.34568e-06)
        porous   : (0 0 0)

Time = 36

smoothSolver:  Solving for Ux, Initial residual = 0.00334839, Final residual = 0.000208864, No Iterations 4
smoothSolver:  Solving for Uy, Initial residual = 0.00171533, Final residual = 6.90592e-05, No Iterations 4
GAMG:  Solving for p, Initial residual = 0.503466, Final residual = 0.0251418, No Iterations 6
time step continuity errors : sum local = 4.71922e-08, global = 5.83415e-19, cumulative = 1.58383e-18
ExecutionTime = 25.02 s  ClockTime = 25 s

forces forces write:
    sum of forces:
        pressure : (-1.38434e-06 1.27988e-05 4.22345e-26)
        viscous  : (4.23863e-05 7.59711e-07 -1.06766e-25)
        porous   : (0 0 0)
    sum of moments:
        pressure : (-1.91982e-06 -2.07651e-07 -2.87724e-06)
        viscous  : (-1.13957e-07 6.35795e-06 -2.29641e-06)
        porous   : (0 0 0)

Time = 37

smoothSolver:  Solving for Ux, Initial residual = 0.00321768, Final residual = 0.00020325, No Iterations 4
smoothSolver:  Solving for Uy, Initial residual = 0.00163949, Final residual = 6.55594e-05, No Iterations 4
GAMG:  Solving for p, Initial residual = 0.501766, Final residual = 0.0272525, No Iterations 6
time step continuity errors : sum local = 4.87663e-08, global = 6.32269e-20, cumulative = 1.64705e-18
ExecutionTime = 25.67 s  ClockTime = 26 s

forces forces write:
    sum of forces:
        pressure : (-1.75909e-06 9.77131e-06 -3.31128e-26)
        viscous  : (4.15133e-05 6.96411e-07 -7.45319e-26)
        porous   : (0 0 0)
    sum of moments:
        pressure : (-1.4657e-06 -2.63864e-07 -2.89815e-06)
        viscous  : (-1.04462e-07 6.227e-06 -2.2513e-06)
        porous   : (0 0 0)

Time = 38

smoothSolver:  Solving for Ux, Initial residual = 0.0031422, Final residual = 0.000195684, No Iterations 4
smoothSolver:  Solving for Uy, Initial residual = 0.00152912, Final residual = 5.91522e-05, No Iterations 4
GAMG:  Solving for p, Initial residual = 0.489697, Final residual = 0.0467765, No Iterations 5
time step continuity errors : sum local = 8.07571e-08, global = -4.53297e-19, cumulative = 1.19376e-18
ExecutionTime = 26.2 s  ClockTime = 27 s

forces forces write:
    sum of forces:
        pressure : (-2.1436e-06 6.77798e-06 -1.0414e-25)
        viscous  : (4.06797e-05 6.68253e-07 -4.62308e-26)
        porous   : (0 0 0)
    sum of moments:
        pressure : (-1.0167e-06 -3.2154e-07 -3.01926e-06)
        viscous  : (-1.00238e-07 6.10196e-06 -2.20838e-06)
        porous   : (0 0 0)

Time = 39

smoothSolver:  Solving for Ux, Initial residual = 0.00304528, Final residual = 0.000188973, No Iterations 4
smoothSolver:  Solving for Uy, Initial residual = 0.00153025, Final residual = 6.20732e-05, No Iterations 4
GAMG:  Solving for p, Initial residual = 0.457394, Final residual = 0.0312497, No Iterations 5
time step continuity errors : sum local = 5.13596e-08, global = 7.33161e-21, cumulative = 1.20109e-18
ExecutionTime = 26.98 s  ClockTime = 27 s

forces forces write:
    sum of forces:
        pressure : (-2.17284e-06 6.72818e-06 -1.04249e-25)
        viscous  : (3.9884e-05 6.77925e-07 -4.72818e-26)
        porous   : (0 0 0)
    sum of moments:
        pressure : (-1.00923e-06 -3.25925e-07 -3.09534e-06)
        viscous  : (-1.01689e-07 5.98259e-06 -2.16611e-06)
        porous   : (0 0 0)

Time = 40

smoothSolver:  Solving for Ux, Initial residual = 0.00296238, Final residual = 0.00018458, No Iterations 4
smoothSolver:  Solving for Uy, Initial residual = 0.00149255, Final residual = 6.08491e-05, No Iterations 4
GAMG:  Solving for p, Initial residual = 0.439108, Final residual = 0.0195741, No Iterations 6
time step continuity errors : sum local = 3.17823e-08, global = 8.49362e-19, cumulative = 2.05045e-18
ExecutionTime = 27.59 s  ClockTime = 28 s

forces forces write:
    sum of forces:
        pressure : (-1.93707e-06 8.84089e-06 -5.53526e-26)
        viscous  : (3.91197e-05 6.93042e-07 -6.78434e-26)
        porous   : (0 0 0)
    sum of moments:
        pressure : (-1.32613e-06 -2.90561e-07 -3.07631e-06)
        viscous  : (-1.03956e-07 5.86795e-06 -2.12449e-06)
        porous   : (0 0 0)

Time = 41

smoothSolver:  Solving for Ux, Initial residual = 0.00291938, Final residual = 0.000181459, No Iterations 4
smoothSolver:  Solving for Uy, Initial residual = 0.00146535, Final residual = 5.75064e-05, No Iterations 4
GAMG:  Solving for p, Initial residual = 0.415489, Final residual = 0.0328454, No Iterations 5
time step continuity errors : sum local = 5.22917e-08, global = -5.92493e-19, cumulative = 1.45796e-18
ExecutionTime = 28.11 s  ClockTime = 28 s

forces forces write:
    sum of forces:
        pressure : (-1.75269e-06 1.05506e-05 -1.82847e-26)
        viscous  : (3.83814e-05 6.8736e-07 -8.32377e-26)
        porous   : (0 0 0)
    sum of moments:
        pressure : (-1.5826e-06 -2.62904e-07 -3.02003e-06)
        viscous  : (-1.03104e-07 5.75721e-06 -2.08443e-06)
        porous   : (0 0 0)

Time = 42

smoothSolver:  Solving for Ux, Initial residual = 0.00285312, Final residual = 0.000178097, No Iterations 4
smoothSolver:  Solving for Uy, Initial residual = 0.00146076, Final residual = 5.70863e-05, No Iterations 4
GAMG:  Solving for p, Initial residual = 0.390971, Final residual = 0.0210634, No Iterations 5
time step continuity errors : sum local = 3.23604e-08, global = -4.17433e-19, cumulative = 1.04052e-18
ExecutionTime = 28.61 s  ClockTime = 29 s

forces forces write:
    sum of forces:
        pressure : (-1.79452e-06 1.04094e-05 -2.52311e-26)
        viscous  : (3.76676e-05 6.62863e-07 -8.0363e-26)
        porous   : (0 0 0)
    sum of moments:
        pressure : (-1.56141e-06 -2.69177e-07 -3.00624e-06)
        viscous  : (-9.94295e-08 5.65015e-06 -2.04657e-06)
        porous   : (0 0 0)

Time = 43

smoothSolver:  Solving for Ux, Initial residual = 0.00277212, Final residual = 0.000173807, No Iterations 4
smoothSolver:  Solving for Uy, Initial residual = 0.00142933, Final residual = 5.61278e-05, No Iterations 4
GAMG:  Solving for p, Initial residual = 0.381863, Final residual = 0.0126162, No Iterations 6
time step continuity errors : sum local = 1.88195e-08, global = -2.59865e-19, cumulative = 7.80658e-19
ExecutionTime = 29.15 s  ClockTime = 29 s

forces forces write:
    sum of forces:
        pressure : (-1.96901e-06 9.14034e-06 -5.67632e-26)
        viscous  : (3.69799e-05 6.38686e-07 -6.68623e-26)
        porous   : (0 0 0)
    sum of moments:
        pressure : (-1.37105e-06 -2.95351e-07 -3.04115e-06)
        viscous  : (-9.58029e-08 5.54698e-06 -2.01067e-06)
        porous   : (0 0 0)

Time = 44

smoothSolver:  Solving for Ux, Initial residual = 0.00271362, Final residual = 0.000169066, No Iterations 4
smoothSolver:  Solving for Uy, Initial residual = 0.0014116, Final residual = 5.58371e-05, No Iterations 4
GAMG:  Solving for p, Initial residual = 0.365447, Final residual = 0.0254409, No Iterations 5
time step continuity errors : sum local = 3.68092e-08, global = 3.18203e-19, cumulative = 1.09886e-18
ExecutionTime = 29.7 s  ClockTime = 30 s

forces forces write:
    sum of forces:
        pressure : (-2.08586e-06 8.32929e-06 -7.57334e-26)
        viscous  : (3.6319e-05 6.27893e-07 -5.83153e-26)
        porous   : (0 0 0)
    sum of moments:
        pressure : (-1.24939e-06 -3.12879e-07 -3.07748e-06)
        viscous  : (-9.4184e-08 5.44785e-06 -1.97608e-06)
        porous   : (0 0 0)

Time = 45

smoothSolver:  Solving for Ux, Initial residual = 0.00266087, Final residual = 0.000164761, No Iterations 4
smoothSolver:  Solving for Uy, Initial residual = 0.00140355, Final residual = 5.61638e-05, No Iterations 4
GAMG:  Solving for p, Initial residual = 0.346106, Final residual = 0.0193099, No Iterations 5
time step continuity errors : sum local = 2.72593e-08, global = 1.21627e-19, cumulative = 1.22049e-18
ExecutionTime = 30.27 s  ClockTime = 31 s

forces forces write:
    sum of forces:
        pressure : (-2.06842e-06 8.67649e-06 -6.7589e-26)
        viscous  : (3.56836e-05 6.2725e-07 -6.1504e-26)
        porous   : (0 0 0)
    sum of moments:
        pressure : (-1.30147e-06 -3.10264e-07 -3.07773e-06)
        viscous  : (-9.40874e-08 5.35254e-06 -1.94238e-06)
        porous   : (0 0 0)

Time = 46

smoothSolver:  Solving for Ux, Initial residual = 0.00261583, Final residual = 0.000161312, No Iterations 4
smoothSolver:  Solving for Uy, Initial residual = 0.00137012, Final residual = 5.45022e-05, No Iterations 4
GAMG:  Solving for p, Initial residual = 0.331324, Final residual = 0.0288409, No Iterations 5
time step continuity errors : sum local = 4.05024e-08, global = 1.806e-19, cumulative = 1.40109e-18
ExecutionTime = 30.82 s  ClockTime = 31 s

forces forces write:
    sum of forces:
        pressure : (-1.99214e-06 9.57973e-06 -4.78776e-26)
        viscous  : (3.50708e-05 6.25494e-07 -7.05921e-26)
        porous   : (0 0 0)
    sum of moments:
        pressure : (-1.43696e-06 -2.9882e-07 -3.05546e-06)
        viscous  : (-9.38241e-08 5.26062e-06 -1.90966e-06)
        porous   : (0 0 0)

Time = 47

smoothSolver:  Solving for Ux, Initial residual = 0.00257274, Final residual = 0.000158377, No Iterations 4
smoothSolver:  Solving for Uy, Initial residual = 0.00135191, Final residual = 5.30844e-05, No Iterations 4
GAMG:  Solving for p, Initial residual = 0.31144, Final residual = 0.0259917, No Iterations 4
time step continuity errors : sum local = 3.6254e-08, global = 6.1391e-19, cumulative = 2.015e-18
ExecutionTime = 31.35 s  ClockTime = 32 s

forces forces write:
    sum of forces:
        pressure : (-1.96362e-06 1.00634e-05 -3.8785e-26)
        viscous  : (3.44783e-05 6.163e-07 -7.5571e-26)
        porous   : (0 0 0)
    sum of moments:
        pressure : (-1.50952e-06 -2.94542e-07 -3.0446e-06)
        viscous  : (-9.2445e-08 5.17174e-06 -1.87816e-06)
        porous   : (0 0 0)

Time = 48

smoothSolver:  Solving for Ux, Initial residual = 0.00252221, Final residual = 0.00015533, No Iterations 4
smoothSolver:  Solving for Uy, Initial residual = 0.00133875, Final residual = 5.2534e-05, No Iterations 4
GAMG:  Solving for p, Initial residual = 0.296857, Final residual = 0.0169061, No Iterations 5
time step continuity errors : sum local = 2.32462e-08, global = 2.808e-19, cumulative = 2.2958e-18
ExecutionTime = 31.88 s  ClockTime = 32 s

forces forces write:
    sum of forces:
        pressure : (-2.0119e-06 9.90309e-06 -4.48271e-26)
        viscous  : (3.39051e-05 6.02674e-07 -7.36832e-26)
        porous   : (0 0 0)
    sum of moments:
        pressure : (-1.48546e-06 -3.01786e-07 -3.05918e-06)
        viscous  : (-9.0401e-08 5.08577e-06 -1.84793e-06)
        porous   : (0 0 0)

Time = 49

smoothSolver:  Solving for Ux, Initial residual = 0.00246745, Final residual = 0.000152041, No Iterations 4
smoothSolver:  Solving for Uy, Initial residual = 0.00132608, Final residual = 5.24599e-05, No Iterations 4
GAMG:  Solving for p, Initial residual = 0.286891, Final residual = 0.0236527, No Iterations 5
time step continuity errors : sum local = 3.17966e-08, global = 8.65297e-20, cumulative = 2.38233e-18
ExecutionTime = 32.56 s  ClockTime = 33 s

forces forces write:
    sum of forces:
        pressure : (-2.08444e-06 9.44916e-06 -5.66777e-26)
        viscous  : (3.33512e-05 5.90879e-07 -6.81212e-26)
        porous   : (0 0 0)
    sum of moments:
        pressure : (-1.41737e-06 -3.12666e-07 -3.08301e-06)
        viscous  : (-8.86319e-08 5.00267e-06 -1.81878e-06)
        porous   : (0 0 0)

Time = 50

smoothSolver:  Solving for Ux, Initial residual = 0.00242224, Final residual = 0.000148664, No Iterations 4
smoothSolver:  Solving for Uy, Initial residual = 0.00131943, Final residual = 5.25313e-05, No Iterations 4
GAMG:  Solving for p, Initial residual = 0.273491, Final residual = 0.0263845, No Iterations 4
time step continuity errors : sum local = 3.48001e-08, global = -1.55624e-19, cumulative = 2.2267e-18
ExecutionTime = 33.06 s  ClockTime = 33 s

forces forces write:
    sum of forces:
        pressure : (-2.12063e-06 9.26378e-06 -6.1479e-26)
        viscous  : (3.28159e-05 5.83908e-07 -6.50468e-26)
        porous   : (0 0 0)
    sum of moments:
        pressure : (-1.38957e-06 -3.18094e-07 -3.09332e-06)
        viscous  : (-8.75862e-08 4.92238e-06 -1.79047e-06)
        porous   : (0 0 0)

Time = 51

smoothSolver:  Solving for Ux, Initial residual = 0.00238314, Final residual = 0.000145572, No Iterations 4
smoothSolver:  Solving for Uy, Initial residual = 0.00131216, Final residual = 5.23176e-05, No Iterations 4
GAMG:  Solving for p, Initial residual = 0.261857, Final residual = 0.00770642, No Iterations 5
time step continuity errors : sum local = 1.00481e-08, global = -1.71914e-19, cumulative = 2.05479e-18
ExecutionTime = 33.58 s  ClockTime = 34 s

forces forces write:
    sum of forces:
        pressure : (-2.14554e-06 9.47635e-06 -1.66471e-25)
        viscous  : (3.22993e-05 5.79541e-07 -4.21155e-26)
        porous   : (0 0 0)
    sum of moments:
        pressure : (-1.42145e-06 -3.21831e-07 -3.08649e-06)
        viscous  : (-8.69312e-08 4.84489e-06 -1.76292e-06)
        porous   : (0 0 0)

Time = 52

smoothSolver:  Solving for Ux, Initial residual = 0.00235115, Final residual = 0.00014287, No Iterations 4
smoothSolver:  Solving for Uy, Initial residual = 0.00129377, Final residual = 5.1392e-05, No Iterations 4
GAMG:  Solving for p, Initial residual = 0.249976, Final residual = 0.0130145, No Iterations 5
time step continuity errors : sum local = 1.68739e-08, global = -1.9217e-19, cumulative = 1.86262e-18
ExecutionTime = 34.1 s  ClockTime = 34 s

forces forces write:
    sum of forces:
        pressure : (-2.12163e-06 9.84438e-06 -1.58918e-25)
        viscous  : (3.17999e-05 5.74226e-07 -4.5659e-26)
        porous   : (0 0 0)
    sum of moments:
        pressure : (-1.47666e-06 -3.18244e-07 -3.07682e-06)
        viscous  : (-8.61339e-08 4.76998e-06 -1.73616e-06)
        porous   : (0 0 0)

Time = 53

smoothSolver:  Solving for Ux, Initial residual = 0.00231604, Final residual = 0.000140324, No Iterations 4
smoothSolver:  Solving for Uy, Initial residual = 0.00127061, Final residual = 5.02817e-05, No Iterations 4
GAMG:  Solving for p, Initial residual = 0.236748, Final residual = 0.018524, No Iterations 4
time step continuity errors : sum local = 2.37694e-08, global = 6.08375e-19, cumulative = 2.471e-18
ExecutionTime = 34.74 s  ClockTime = 35 s

forces forces write:
    sum of forces:
        pressure : (-2.11992e-06 1.0005e-05 -1.56516e-25)
        viscous  : (3.1315e-05 5.66576e-07 -4.76107e-26)
        porous   : (0 0 0)
    sum of moments:
        pressure : (-1.50075e-06 -3.17988e-07 -3.07895e-06)
        viscous  : (-8.49864e-08 4.69726e-06 -1.71032e-06)
        porous   : (0 0 0)

Time = 54

smoothSolver:  Solving for Ux, Initial residual = 0.00227614, Final residual = 0.000137753, No Iterations 4
smoothSolver:  Solving for Uy, Initial residual = 0.00125684, Final residual = 4.98248e-05, No Iterations 4
GAMG:  Solving for p, Initial residual = 0.226385, Final residual = 0.0194818, No Iterations 4
time step continuity errors : sum local = 2.47446e-08, global = -2.41582e-19, cumulative = 2.22941e-18
ExecutionTime = 35.24 s  ClockTime = 36 s

forces forces write:
    sum of forces:
        pressure : (-2.14239e-06 9.9558e-06 -1.58973e-25)
        viscous  : (3.08445e-05 5.58032e-07 -4.72732e-26)
        porous   : (0 0 0)
    sum of moments:
        pressure : (-1.49337e-06 -3.21358e-07 -3.08847e-06)
        viscous  : (-8.37048e-08 4.62667e-06 -1.68535e-06)
        porous   : (0 0 0)

Time = 55

smoothSolver:  Solving for Ux, Initial residual = 0.00223591, Final residual = 0.000135144, No Iterations 4
smoothSolver:  Solving for Uy, Initial residual = 0.00124871, Final residual = 4.97043e-05, No Iterations 4
GAMG:  Solving for p, Initial residual = 0.218415, Final residual = 0.0191536, No Iterations 4
time step continuity errors : sum local = 2.41536e-08, global = 1.16787e-20, cumulative = 2.24109e-18
ExecutionTime = 35.73 s  ClockTime = 36 s

forces forces write:
    sum of forces:
        pressure : (-2.17124e-06 9.83561e-06 -1.62917e-25)
        viscous  : (3.03878e-05 5.50497e-07 -4.56528e-26)
        porous   : (0 0 0)
    sum of moments:
        pressure : (-1.47534e-06 -3.25687e-07 -3.09731e-06)
        viscous  : (-8.25745e-08 4.55816e-06 -1.66118e-06)
        porous   : (0 0 0)

Time = 56

smoothSolver:  Solving for Ux, Initial residual = 0.00219893, Final residual = 0.000132595, No Iterations 4
smoothSolver:  Solving for Uy, Initial residual = 0.00124408, Final residual = 4.96801e-05, No Iterations 4
GAMG:  Solving for p, Initial residual = 0.209302, Final residual = 0.0201215, No Iterations 4
time step continuity errors : sum local = 2.5216e-08, global = -4.96943e-19, cumulative = 1.74415e-18
ExecutionTime = 36.27 s  ClockTime = 37 s

forces forces write:
    sum of forces:
        pressure : (-2.18774e-06 9.80732e-06 -1.64579e-25)
        viscous  : (2.99441e-05 5.44596e-07 -4.45367e-26)
        porous   : (0 0 0)
    sum of moments:
        pressure : (-1.4711e-06 -3.28162e-07 -3.09971e-06)
        viscous  : (-8.16893e-08 4.49162e-06 -1.63769e-06)
        porous   : (0 0 0)

Time = 57

smoothSolver:  Solving for Ux, Initial residual = 0.00216593, Final residual = 0.000130199, No Iterations 4
smoothSolver:  Solving for Uy, Initial residual = 0.00123911, Final residual = 4.95029e-05, No Iterations 4
GAMG:  Solving for p, Initial residual = 0.201612, Final residual = 0.0135921, No Iterations 5
time step continuity errors : sum local = 1.69492e-08, global = 6.96023e-20, cumulative = 1.81375e-18
ExecutionTime = 37.05 s  ClockTime = 37 s

forces forces write:
    sum of forces:
        pressure : (-2.18877e-06 9.9217e-06 -1.62831e-25)
        viscous  : (2.95128e-05 5.39505e-07 -4.48271e-26)
        porous   : (0 0 0)
    sum of moments:
        pressure : (-1.48826e-06 -3.28316e-07 -3.09619e-06)
        viscous  : (-8.09258e-08 4.42693e-06 -1.61482e-06)
        porous   : (0 0 0)

Time = 58

smoothSolver:  Solving for Ux, Initial residual = 0.00213898, Final residual = 0.000127958, No Iterations 4
smoothSolver:  Solving for Uy, Initial residual = 0.00122947, Final residual = 4.89781e-05, No Iterations 4
GAMG:  Solving for p, Initial residual = 0.192815, Final residual = 0.0191774, No Iterations 3
time step continuity errors : sum local = 2.37447e-08, global = 9.17681e-20, cumulative = 1.90552e-18
ExecutionTime = 37.52 s  ClockTime = 38 s

forces forces write:
    sum of forces:
        pressure : (-2.18747e-06 1.00322e-05 -1.60962e-25)
        viscous  : (2.90932e-05 5.34152e-07 -4.56428e-26)
        porous   : (0 0 0)
    sum of moments:
        pressure : (-1.50484e-06 -3.28121e-07 -3.09601e-06)
        viscous  : (-8.01228e-08 4.36398e-06 -1.59257e-06)
        porous   : (0 0 0)

Time = 59

smoothSolver:  Solving for Ux, Initial residual = 0.00210783, Final residual = 0.00012578, No Iterations 4
smoothSolver:  Solving for Uy, Initial residual = 0.00121625, Final residual = 4.84272e-05, No Iterations 4
GAMG:  Solving for p, Initial residual = 0.183347, Final residual = 0.0143033, No Iterations 4
time step continuity errors : sum local = 1.75879e-08, global = 5.52917e-21, cumulative = 1.91105e-18
ExecutionTime = 38.02 s  ClockTime = 38 s

forces forces write:
    sum of forces:
        pressure : (-2.19414e-06 1.01569e-05 -1.59074e-25)
        viscous  : (2.86846e-05 5.28287e-07 -4.66676e-26)
        porous   : (0 0 0)
    sum of moments:
        pressure : (-1.52353e-06 -3.2912e-07 -3.09863e-06)
        viscous  : (-7.9243e-08 4.3027e-06 -1.57096e-06)
        porous   : (0 0 0)

Time = 60

smoothSolver:  Solving for Ux, Initial residual = 0.00208044, Final residual = 0.00012368, No Iterations 4
smoothSolver:  Solving for Uy, Initial residual = 0.00119883, Final residual = 4.77654e-05, No Iterations 4
GAMG:  Solving for p, Initial residual = 0.175184, Final residual = 0.0137284, No Iterations 4
time step continuity errors : sum local = 1.67581e-08, global = -5.21362e-19, cumulative = 1.38969e-18
ExecutionTime = 38.53 s  ClockTime = 39 s

forces forces write:
    sum of forces:
        pressure : (-2.20937e-06 1.01862e-05 -1.59308e-25)
        viscous  : (2.82869e-05 5.22243e-07 -4.67438e-26)
        porous   : (0 0 0)
    sum of moments:
        pressure : (-1.52793e-06 -3.31406e-07 -3.10399e-06)
        viscous  : (-7.83364e-08 4.24303e-06 -1.54997e-06)
        porous   : (0 0 0)

Time = 61

smoothSolver:  Solving for Ux, Initial residual = 0.00205088, Final residual = 0.000121597, No Iterations 4
smoothSolver:  Solving for Uy, Initial residual = 0.00118648, Final residual = 4.73859e-05, No Iterations 4
GAMG:  Solving for p, Initial residual = 0.168858, Final residual = 0.0159769, No Iterations 3
time step continuity errors : sum local = 1.94311e-08, global = 3.97697e-19, cumulative = 1.78738e-18
ExecutionTime = 38.99 s  ClockTime = 39 s

forces forces write:
    sum of forces:
        pressure : (-2.22309e-06 1.01633e-05 -1.60496e-25)
        viscous  : (2.78997e-05 5.16655e-07 -4.62858e-26)
        porous   : (0 0 0)
    sum of moments:
        pressure : (-1.52449e-06 -3.33464e-07 -3.10785e-06)
        viscous  : (-7.74982e-08 4.18495e-06 -1.52957e-06)
        porous   : (0 0 0)

Time = 62

smoothSolver:  Solving for Ux, Initial residual = 0.00201982, Final residual = 0.000119544, No Iterations 4
smoothSolver:  Solving for Uy, Initial residual = 0.00117917, Final residual = 4.71441e-05, No Iterations 4
GAMG:  Solving for p, Initial residual = 0.162496, Final residual = 0.0148401, No Iterations 4
time step continuity errors : sum local = 1.79997e-08, global = -5.20072e-19, cumulative = 1.26731e-18
ExecutionTime = 39.5 s  ClockTime = 40 s

forces forces write:
    sum of forces:
        pressure : (-2.24028e-06 1.01654e-05 -1.61493e-25)
        viscous  : (2.75226e-05 5.11676e-07 -4.57465e-26)
        porous   : (0 0 0)
    sum of moments:
        pressure : (-1.5248e-06 -3.36042e-07 -3.1102e-06)
        viscous  : (-7.67514e-08 4.12839e-06 -1.50971e-06)
        porous   : (0 0 0)

Time = 63

smoothSolver:  Solving for Ux, Initial residual = 0.0019914, Final residual = 0.000117605, No Iterations 4
smoothSolver:  Solving for Uy, Initial residual = 0.00117417, Final residual = 4.70348e-05, No Iterations 4
GAMG:  Solving for p, Initial residual = 0.155268, Final residual = 0.0148693, No Iterations 4
time step continuity errors : sum local = 1.80123e-08, global = 1.31534e-19, cumulative = 1.39885e-18
ExecutionTime = 39.99 s  ClockTime = 40 s

forces forces write:
    sum of forces:
        pressure : (-2.25128e-06 1.02168e-05 -1.61269e-25)
        viscous  : (2.71553e-05 5.07103e-07 -4.58133e-26)
        porous   : (0 0 0)
    sum of moments:
        pressure : (-1.53252e-06 -3.37692e-07 -3.11042e-06)
        viscous  : (-7.60655e-08 4.0733e-06 -1.49035e-06)
        porous   : (0 0 0)

Time = 64

smoothSolver:  Solving for Ux, Initial residual = 0.00196524, Final residual = 0.000115742, No Iterations 4
smoothSolver:  Solving for Uy, Initial residual = 0.0011672, Final residual = 4.67879e-05, No Iterations 4
GAMG:  Solving for p, Initial residual = 0.149643, Final residual = 0.0143088, No Iterations 4
time step continuity errors : sum local = 1.73049e-08, global = 1.20677e-19, cumulative = 1.51952e-18
ExecutionTime = 40.65 s  ClockTime = 41 s

forces forces write:
    sum of forces:
        pressure : (-2.25776e-06 1.02956e-05 -1.60218e-25)
        viscous  : (2.67974e-05 5.0252e-07 -4.63686e-26)
        porous   : (0 0 0)
    sum of moments:
        pressure : (-1.54434e-06 -3.38664e-07 -3.11013e-06)
        viscous  : (-7.5378e-08 4.01961e-06 -1.47149e-06)
        porous   : (0 0 0)

Time = 65

smoothSolver:  Solving for Ux, Initial residual = 0.00194079, Final residual = 0.000113925, No Iterations 4
smoothSolver:  Solving for Uy, Initial residual = 0.00115687, Final residual = 4.63589e-05, No Iterations 4
GAMG:  Solving for p, Initial residual = 0.14363, Final residual = 0.0139912, No Iterations 3
time step continuity errors : sum local = 1.68625e-08, global = 2.20602e-20, cumulative = 1.54158e-18
ExecutionTime = 41.13 s  ClockTime = 41 s

forces forces write:
    sum of forces:
        pressure : (-2.26428e-06 1.03474e-05 -1.59577e-25)
        viscous  : (2.64484e-05 4.97773e-07 -4.68106e-26)
        porous   : (0 0 0)
    sum of moments:
        pressure : (-1.55211e-06 -3.39642e-07 -3.11161e-06)
        viscous  : (-7.4666e-08 3.96726e-06 -1.45313e-06)
        porous   : (0 0 0)

Time = 66

smoothSolver:  Solving for Ux, Initial residual = 0.0019154, Final residual = 0.000112132, No Iterations 4
smoothSolver:  Solving for Uy, Initial residual = 0.00114587, Final residual = 4.5925e-05, No Iterations 4
GAMG:  Solving for p, Initial residual = 0.137858, Final residual = 0.00951082, No Iterations 4
time step continuity errors : sum local = 1.14348e-08, global = -6.14983e-19, cumulative = 9.26601e-19
ExecutionTime = 41.63 s  ClockTime = 42 s

forces forces write:
    sum of forces:
        pressure : (-2.27485e-06 1.04017e-05 -1.59095e-25)
        viscous  : (2.6108e-05 4.93043e-07 -4.71177e-26)
        porous   : (0 0 0)
    sum of moments:
        pressure : (-1.56026e-06 -3.41227e-07 -3.11333e-06)
        viscous  : (-7.39564e-08 3.9162e-06 -1.43525e-06)
        porous   : (0 0 0)

Time = 67

smoothSolver:  Solving for Ux, Initial residual = 0.00189295, Final residual = 0.000110394, No Iterations 4
smoothSolver:  Solving for Uy, Initial residual = 0.00113362, Final residual = 4.54057e-05, No Iterations 4
GAMG:  Solving for p, Initial residual = 0.132893, Final residual = 0.00757636, No Iterations 4
time step continuity errors : sum local = 9.10404e-09, global = 5.18971e-19, cumulative = 1.44557e-18
ExecutionTime = 42.24 s  ClockTime = 43 s

forces forces write:
    sum of forces:
        pressure : (-2.28762e-06 1.04302e-05 -1.59271e-25)
        viscous  : (2.57759e-05 4.88542e-07 -4.70476e-26)
        porous   : (0 0 0)
    sum of moments:
        pressure : (-1.56453e-06 -3.43143e-07 -3.11616e-06)
        viscous  : (-7.32814e-08 3.86639e-06 -1.41781e-06)
        porous   : (0 0 0)

Time = 68

smoothSolver:  Solving for Ux, Initial residual = 0.0018694, Final residual = 0.000108717, No Iterations 4
smoothSolver:  Solving for Uy, Initial residual = 0.00112433, Final residual = 4.5079e-05, No Iterations 4
GAMG:  Solving for p, Initial residual = 0.126969, Final residual = 0.0080932, No Iterations 4
time step continuity errors : sum local = 9.71632e-09, global = 2.43791e-19, cumulative = 1.68936e-18
ExecutionTime = 43.01 s  ClockTime = 43 s

forces forces write:
    sum of forces:
        pressure : (-2.29896e-06 1.04513e-05 -1.59564e-25)
        viscous  : (2.54519e-05 4.84363e-07 -4.68612e-26)
        porous   : (0 0 0)
    sum of moments:
        pressure : (-1.5677e-06 -3.44844e-07 -3.11896e-06)
        viscous  : (-7.26544e-08 3.81778e-06 -1.40079e-06)
        porous   : (0 0 0)

Time = 69

smoothSolver:  Solving for Ux, Initial residual = 0.00184491, Final residual = 0.000107091, No Iterations 4
smoothSolver:  Solving for Uy, Initial residual = 0.00111657, Final residual = 4.48541e-05, No Iterations 4
GAMG:  Solving for p, Initial residual = 0.121451, Final residual = 0.00932929, No Iterations 4
time step continuity errors : sum local = 1.11954e-08, global = 8.52447e-20, cumulative = 1.77461e-18
ExecutionTime = 43.76 s  ClockTime = 44 s

forces forces write:
    sum of forces:
        pressure : (-2.30811e-06 1.04822e-05 -1.59543e-25)
        viscous  : (2.51355e-05 4.80407e-07 -4.68156e-26)
        porous   : (0 0 0)
    sum of moments:
        pressure : (-1.57233e-06 -3.46217e-07 -3.12098e-06)
        viscous  : (-7.20611e-08 3.77033e-06 -1.38416e-06)
        porous   : (0 0 0)

Time = 70

smoothSolver:  Solving for Ux, Initial residual = 0.00182099, Final residual = 0.000105512, No Iterations 4
smoothSolver:  Solving for Uy, Initial residual = 0.00110879, Final residual = 4.46157e-05, No Iterations 4
GAMG:  Solving for p, Initial residual = 0.11708, Final residual = 0.0105471, No Iterations 4
time step continuity errors : sum local = 1.2653e-08, global = 1.66304e-19, cumulative = 1.94091e-18
ExecutionTime = 44.42 s  ClockTime = 45 s

forces forces write:
    sum of forces:
        pressure : (-2.31615e-06 1.05248e-05 -1.59182e-25)
        viscous  : (2.48265e-05 4.7653e-07 -4.69763e-26)
        porous   : (0 0 0)
    sum of moments:
        pressure : (-1.57873e-06 -3.47423e-07 -3.12222e-06)
        viscous  : (-7.14796e-08 3.72398e-06 -1.36793e-06)
        porous   : (0 0 0)

Time = 71

smoothSolver:  Solving for Ux, Initial residual = 0.00179889, Final residual = 0.000103975, No Iterations 4
smoothSolver:  Solving for Uy, Initial residual = 0.00110048, Final residual = 4.42988e-05, No Iterations 4
GAMG:  Solving for p, Initial residual = 0.113207, Final residual = 0.00923531, No Iterations 4
time step continuity errors : sum local = 1.10827e-08, global = 1.09888e-19, cumulative = 2.0508e-18
ExecutionTime = 44.9 s  ClockTime = 45 s

forces forces write:
    sum of forces:
        pressure : (-2.32435e-06 1.0572e-05 -1.58709e-25)
        viscous  : (2.45247e-05 4.7267e-07 -4.72407e-26)
        porous   : (0 0 0)
    sum of moments:
        pressure : (-1.5858e-06 -3.48652e-07 -3.12312e-06)
        viscous  : (-7.09005e-08 3.6787e-06 -1.3521e-06)
        porous   : (0 0 0)

Time = 72

smoothSolver:  Solving for Ux, Initial residual = 0.00177846, Final residual = 0.000102474, No Iterations 4
smoothSolver:  Solving for Uy, Initial residual = 0.00109125, Final residual = 4.39006e-05, No Iterations 4
GAMG:  Solving for p, Initial residual = 0.109678, Final residual = 0.00655767, No Iterations 4
time step continuity errors : sum local = 7.88541e-09, global = -1.49799e-19, cumulative = 1.901e-18
ExecutionTime = 45.41 s  ClockTime = 46 s

forces forces write:
    sum of forces:
        pressure : (-2.33317e-06 1.0614e-05 -1.58396e-25)
        viscous  : (2.42296e-05 4.68872e-07 -4.74544e-26)
        porous   : (0 0 0)
    sum of moments:
        pressure : (-1.5921e-06 -3.49975e-07 -3.12436e-06)
        viscous  : (-7.03307e-08 3.63444e-06 -1.33664e-06)
        porous   : (0 0 0)

Time = 73

smoothSolver:  Solving for Ux, Initial residual = 0.0017583, Final residual = 0.00010101, No Iterations 4
smoothSolver:  Solving for Uy, Initial residual = 0.00108129, Final residual = 4.34967e-05, No Iterations 4
GAMG:  Solving for p, Initial residual = 0.105613, Final residual = 0.00343646, No Iterations 4
time step continuity errors : sum local = 4.11702e-09, global = -2.95833e-19, cumulative = 1.60517e-18
ExecutionTime = 45.89 s  ClockTime = 46 s

forces forces write:
    sum of forces:
        pressure : (-2.35353e-06 1.06419e-05 -1.95639e-25)
        viscous  : (2.39416e-05 4.65203e-07 -3.93119e-26)
        porous   : (0 0 0)
    sum of moments:
        pressure : (-1.59629e-06 -3.53029e-07 -3.12647e-06)
        viscous  : (-6.97804e-08 3.59124e-06 -1.32154e-06)
        porous   : (0 0 0)

Time = 74

smoothSolver:  Solving for Ux, Initial residual = 0.00173707, Final residual = 9.95772e-05, No Iterations 4
smoothSolver:  Solving for Uy, Initial residual = 0.00107238, Final residual = 4.31981e-05, No Iterations 4
GAMG:  Solving for p, Initial residual = 0.10042, Final residual = 0.00589596, No Iterations 4
time step continuity errors : sum local = 7.06746e-09, global = -3.23378e-19, cumulative = 1.28179e-18
ExecutionTime = 46.52 s  ClockTime = 47 s

forces forces write:
    sum of forces:
        pressure : (-2.36122e-06 1.06804e-05 -1.95459e-25)
        viscous  : (2.36603e-05 4.61691e-07 -3.9404e-26)
        porous   : (0 0 0)
    sum of moments:
        pressure : (-1.60206e-06 -3.54183e-07 -3.12815e-06)
        viscous  : (-6.92537e-08 3.54904e-06 -1.30678e-06)
        porous   : (0 0 0)

Time = 75

smoothSolver:  Solving for Ux, Initial residual = 0.00171718, Final residual = 9.81989e-05, No Iterations 4
smoothSolver:  Solving for Uy, Initial residual = 0.00106266, Final residual = 4.28654e-05, No Iterations 4
GAMG:  Solving for p, Initial residual = 0.0961173, Final residual = 0.00648829, No Iterations 4
time step continuity errors : sum local = 7.76446e-09, global = -1.71355e-19, cumulative = 1.11044e-18
ExecutionTime = 47.16 s  ClockTime = 47 s

forces forces write:
    sum of forces:
        pressure : (-2.36755e-06 1.07178e-05 -1.95234e-25)
        viscous  : (2.33849e-05 4.58315e-07 -3.95078e-26)
        porous   : (0 0 0)
    sum of moments:
        pressure : (-1.60767e-06 -3.55132e-07 -3.12981e-06)
        viscous  : (-6.87472e-08 3.50774e-06 -1.29234e-06)
        porous   : (0 0 0)

Time = 76

smoothSolver:  Solving for Ux, Initial residual = 0.00169743, Final residual = 9.68523e-05, No Iterations 4
smoothSolver:  Solving for Uy, Initial residual = 0.00105402, Final residual = 4.25522e-05, No Iterations 4
GAMG:  Solving for p, Initial residual = 0.0928443, Final residual = 0.00715756, No Iterations 4
time step continuity errors : sum local = 8.56092e-09, global = -3.77277e-19, cumulative = 7.33158e-19
ExecutionTime = 47.79 s  ClockTime = 48 s

forces forces write:
    sum of forces:
        pressure : (-2.37368e-06 1.07526e-05 -1.9499e-25)
        viscous  : (2.31155e-05 4.55025e-07 -3.96297e-26)
        porous   : (0 0 0)
    sum of moments:
        pressure : (-1.6129e-06 -3.56052e-07 -3.13143e-06)
        viscous  : (-6.82538e-08 3.46733e-06 -1.27823e-06)
        porous   : (0 0 0)

Time = 77

smoothSolver:  Solving for Ux, Initial residual = 0.00167799, Final residual = 9.55336e-05, No Iterations 4
smoothSolver:  Solving for Uy, Initial residual = 0.00104592, Final residual = 4.22392e-05, No Iterations 4
GAMG:  Solving for p, Initial residual = 0.0900329, Final residual = 0.0064823, No Iterations 4
time step continuity errors : sum local = 7.75581e-09, global = -1.90732e-19, cumulative = 5.42426e-19
ExecutionTime = 48.33 s  ClockTime = 49 s

forces forces write:
    sum of forces:
        pressure : (-2.38038e-06 1.07859e-05 -1.94757e-25)
        viscous  : (2.28518e-05 4.5181e-07 -3.97507e-26)
        porous   : (0 0 0)
    sum of moments:
        pressure : (-1.61789e-06 -3.57057e-07 -3.133e-06)
        viscous  : (-6.77715e-08 3.42776e-06 -1.26444e-06)
        porous   : (0 0 0)

Time = 78

smoothSolver:  Solving for Ux, Initial residual = 0.00165911, Final residual = 9.42469e-05, No Iterations 4
smoothSolver:  Solving for Uy, Initial residual = 0.00103731, Final residual = 4.1912e-05, No Iterations 4
GAMG:  Solving for p, Initial residual = 0.087168, Final residual = 0.00519322, No Iterations 4
time step continuity errors : sum local = 6.22076e-09, global = -8.63325e-20, cumulative = 4.56094e-19
ExecutionTime = 48.83 s  ClockTime = 49 s

forces forces write:
    sum of forces:
        pressure : (-2.38764e-06 1.08192e-05 -1.94553e-25)
        viscous  : (2.25934e-05 4.48688e-07 -3.98506e-26)
        porous   : (0 0 0)
    sum of moments:
        pressure : (-1.62288e-06 -3.58145e-07 -3.13459e-06)
        viscous  : (-6.73031e-08 3.38902e-06 -1.25094e-06)
        porous   : (0 0 0)

Time = 79

smoothSolver:  Solving for Ux, Initial residual = 0.00164082, Final residual = 9.29938e-05, No Iterations 4
smoothSolver:  Solving for Uy, Initial residual = 0.00102791, Final residual = 4.15718e-05, No Iterations 4
GAMG:  Solving for p, Initial residual = 0.0838164, Final residual = 0.00514117, No Iterations 4
time step continuity errors : sum local = 6.16351e-09, global = 1.82497e-19, cumulative = 6.3859e-19
ExecutionTime = 49.4 s  ClockTime = 50 s

forces forces write:
    sum of forces:
        pressure : (-2.39507e-06 1.0853e-05 -1.94376e-25)
        viscous  : (2.23403e-05 4.4568e-07 -3.99326e-26)
        porous   : (0 0 0)
    sum of moments:
        pressure : (-1.62796e-06 -3.59261e-07 -3.13627e-06)
        viscous  : (-6.6852e-08 3.35105e-06 -1.23774e-06)
        porous   : (0 0 0)

Time = 80

smoothSolver:  Solving for Ux, Initial residual = 0.00162283, Final residual = 9.17734e-05, No Iterations 4
smoothSolver:  Solving for Uy, Initial residual = 0.00101842, Final residual = 4.12372e-05, No Iterations 4
GAMG:  Solving for p, Initial residual = 0.0802113, Final residual = 0.00514718, No Iterations 4
time step continuity errors : sum local = 6.18241e-09, global = -1.3102e-19, cumulative = 5.0757e-19
ExecutionTime = 50.01 s  ClockTime = 50 s

forces forces write:
    sum of forces:
        pressure : (-2.40244e-06 1.08872e-05 -1.94198e-25)
        viscous  : (2.20923e-05 4.42788e-07 -4.00218e-26)
        porous   : (0 0 0)
    sum of moments:
        pressure : (-1.63307e-06 -3.60366e-07 -3.13801e-06)
        viscous  : (-6.64182e-08 3.31385e-06 -1.22482e-06)
        porous   : (0 0 0)

Time = 81

smoothSolver:  Solving for Ux, Initial residual = 0.00160504, Final residual = 9.05822e-05, No Iterations 4
smoothSolver:  Solving for Uy, Initial residual = 0.00100963, Final residual = 4.09202e-05, No Iterations 4
GAMG:  Solving for p, Initial residual = 0.0771664, Final residual = 0.0052081, No Iterations 4
time step continuity errors : sum local = 6.27151e-09, global = 2.12931e-19, cumulative = 7.20502e-19
ExecutionTime = 50.78 s  ClockTime = 51 s

forces forces write:
    sum of forces:
        pressure : (-2.40973e-06 1.09207e-05 -1.94001e-25)
        viscous  : (2.18492e-05 4.39993e-07 -4.0134e-26)
        porous   : (0 0 0)
    sum of moments:
        pressure : (-1.63811e-06 -3.61459e-07 -3.13969e-06)
        viscous  : (-6.59989e-08 3.27738e-06 -1.21218e-06)
        porous   : (0 0 0)

Time = 82

smoothSolver:  Solving for Ux, Initial residual = 0.00158744, Final residual = 8.94168e-05, No Iterations 4
smoothSolver:  Solving for Uy, Initial residual = 0.00100136, Final residual = 4.06157e-05, No Iterations 4
GAMG:  Solving for p, Initial residual = 0.074653, Final residual = 0.00556179, No Iterations 4
time step continuity errors : sum local = 6.71459e-09, global = 7.40561e-19, cumulative = 1.46106e-18
ExecutionTime = 51.27 s  ClockTime = 52 s

forces forces write:
    sum of forces:
        pressure : (-2.41705e-06 1.09532e-05 -1.9379e-25)
        viscous  : (2.16109e-05 4.37276e-07 -4.02611e-26)
        porous   : (0 0 0)
    sum of moments:
        pressure : (-1.64298e-06 -3.62557e-07 -3.14129e-06)
        viscous  : (-6.55914e-08 3.24163e-06 -1.1998e-06)
        porous   : (0 0 0)

Time = 83

smoothSolver:  Solving for Ux, Initial residual = 0.00157018, Final residual = 8.82767e-05, No Iterations 4
smoothSolver:  Solving for Uy, Initial residual = 0.00099293, Final residual = 4.03115e-05, No Iterations 4
GAMG:  Solving for p, Initial residual = 0.0725304, Final residual = 0.00530995, No Iterations 4
time step continuity errors : sum local = 6.42938e-09, global = 1.05588e-19, cumulative = 1.56665e-18
ExecutionTime = 51.77 s  ClockTime = 52 s

forces forces write:
    sum of forces:
        pressure : (-2.42451e-06 1.09843e-05 -1.93598e-25)
        viscous  : (2.13773e-05 4.34632e-07 -4.03808e-26)
        porous   : (0 0 0)
    sum of moments:
        pressure : (-1.64764e-06 -3.63677e-07 -3.14291e-06)
        viscous  : (-6.51947e-08 3.20659e-06 -1.18769e-06)
        porous   : (0 0 0)

Time = 84

smoothSolver:  Solving for Ux, Initial residual = 0.00155332, Final residual = 8.71616e-05, No Iterations 4
smoothSolver:  Solving for Uy, Initial residual = 0.000984128, Final residual = 4.00056e-05, No Iterations 4
GAMG:  Solving for p, Initial residual = 0.0704104, Final residual = 0.00421396, No Iterations 4
time step continuity errors : sum local = 5.12295e-09, global = -8.96578e-20, cumulative = 1.47699e-18
ExecutionTime = 52.28 s  ClockTime = 53 s

forces forces write:
    sum of forces:
        pressure : (-2.43214e-06 1.10147e-05 -1.93434e-25)
        viscous  : (2.11482e-05 4.32066e-07 -4.04851e-26)
        porous   : (0 0 0)
    sum of moments:
        pressure : (-1.65221e-06 -3.64821e-07 -3.14461e-06)
        viscous  : (-6.48099e-08 3.17223e-06 -1.17582e-06)
        porous   : (0 0 0)

Time = 85

smoothSolver:  Solving for Ux, Initial residual = 0.00153676, Final residual = 8.60717e-05, No Iterations 4
smoothSolver:  Solving for Uy, Initial residual = 0.000975307, Final residual = 3.9702e-05, No Iterations 4
GAMG:  Solving for p, Initial residual = 0.0677826, Final residual = 0.00403606, No Iterations 4
time step continuity errors : sum local = 4.92249e-09, global = 3.79178e-19, cumulative = 1.85617e-18
ExecutionTime = 52.84 s  ClockTime = 53 s

forces forces write:
    sum of forces:
        pressure : (-2.4398e-06 1.1047e-05 -1.93242e-25)
        viscous  : (2.09236e-05 4.29586e-07 -4.05928e-26)
        porous   : (0 0 0)
    sum of moments:
        pressure : (-1.65705e-06 -3.6597e-07 -3.14629e-06)
        viscous  : (-6.44379e-08 3.13854e-06 -1.16419e-06)
        porous   : (0 0 0)

Time = 86

smoothSolver:  Solving for Ux, Initial residual = 0.00152067, Final residual = 8.50073e-05, No Iterations 4
smoothSolver:  Solving for Uy, Initial residual = 0.000966591, Final residual = 3.93889e-05, No Iterations 4
GAMG:  Solving for p, Initial residual = 0.0651788, Final residual = 0.00399937, No Iterations 4
time step continuity errors : sum local = 4.89237e-09, global = 3.34849e-19, cumulative = 2.19102e-18
ExecutionTime = 53.47 s  ClockTime = 54 s

forces forces write:
    sum of forces:
        pressure : (-2.44731e-06 1.10808e-05 -1.93011e-25)
        viscous  : (2.07033e-05 4.27191e-07 -4.07133e-26)
        porous   : (0 0 0)
    sum of moments:
        pressure : (-1.66212e-06 -3.67096e-07 -3.14792e-06)
        viscous  : (-6.40786e-08 3.10549e-06 -1.1528e-06)
        porous   : (0 0 0)

Time = 87

smoothSolver:  Solving for Ux, Initial residual = 0.00150493, Final residual = 8.39671e-05, No Iterations 4
smoothSolver:  Solving for Uy, Initial residual = 0.000957911, Final residual = 3.90701e-05, No Iterations 4
GAMG:  Solving for p, Initial residual = 0.0629343, Final residual = 0.00375714, No Iterations 4
time step continuity errors : sum local = 4.6116e-09, global = 1.0376e-19, cumulative = 2.29478e-18
ExecutionTime = 53.97 s  ClockTime = 54 s

forces forces write:
    sum of forces:
        pressure : (-2.45457e-06 1.1114e-05 -1.92769e-25)
        viscous  : (2.04871e-05 4.24874e-07 -4.08409e-26)
        porous   : (0 0 0)
    sum of moments:
        pressure : (-1.66709e-06 -3.68185e-07 -3.14957e-06)
        viscous  : (-6.37311e-08 3.07307e-06 -1.14163e-06)
        porous   : (0 0 0)

Time = 88

smoothSolver:  Solving for Ux, Initial residual = 0.00148933, Final residual = 8.29489e-05, No Iterations 4
smoothSolver:  Solving for Uy, Initial residual = 0.00094921, Final residual = 3.87598e-05, No Iterations 4
GAMG:  Solving for p, Initial residual = 0.0607991, Final residual = 0.00556751, No Iterations 4
time step continuity errors : sum local = 6.79972e-09, global = 1.41655e-19, cumulative = 2.43644e-18
ExecutionTime = 54.48 s  ClockTime = 55 s

forces forces write:
    sum of forces:
        pressure : (-2.46963e-06 1.11446e-05 -2.18857e-25)
        viscous  : (2.02753e-05 4.2262e-07 -3.51604e-26)
        porous   : (0 0 0)
    sum of moments:
        pressure : (-1.67169e-06 -3.70444e-07 -3.1513e-06)
        viscous  : (-6.33931e-08 3.04129e-06 -1.13068e-06)
        porous   : (0 0 0)

Time = 89

smoothSolver:  Solving for Ux, Initial residual = 0.00147367, Final residual = 8.19455e-05, No Iterations 4
smoothSolver:  Solving for Uy, Initial residual = 0.00094074, Final residual = 3.84757e-05, No Iterations 4
GAMG:  Solving for p, Initial residual = 0.0594586, Final residual = 0.0037009, No Iterations 4
time step continuity errors : sum local = 4.54942e-09, global = -1.51092e-19, cumulative = 2.28534e-18
ExecutionTime = 55 s  ClockTime = 55 s

forces forces write:
    sum of forces:
        pressure : (-2.47554e-06 1.11711e-05 -2.18722e-25)
        viscous  : (2.00677e-05 4.20428e-07 -3.52566e-26)
        porous   : (0 0 0)
    sum of moments:
        pressure : (-1.67567e-06 -3.71332e-07 -3.15321e-06)
        viscous  : (-6.30642e-08 3.01015e-06 -1.11995e-06)
        porous   : (0 0 0)

Time = 90

smoothSolver:  Solving for Ux, Initial residual = 0.001458, Final residual = 8.09672e-05, No Iterations 4
smoothSolver:  Solving for Uy, Initial residual = 0.000932575, Final residual = 3.82047e-05, No Iterations 4
GAMG:  Solving for p, Initial residual = 0.0575137, Final residual = 0.00378754, No Iterations 4
time step continuity errors : sum local = 4.65346e-09, global = -3.09284e-19, cumulative = 1.97606e-18
ExecutionTime = 55.65 s  ClockTime = 56 s

forces forces write:
    sum of forces:
        pressure : (-2.48155e-06 1.11999e-05 -2.18573e-25)
        viscous  : (1.98637e-05 4.18304e-07 -3.53666e-26)
        porous   : (0 0 0)
    sum of moments:
        pressure : (-1.67999e-06 -3.72232e-07 -3.15514e-06)
        viscous  : (-6.27456e-08 2.97956e-06 -1.10942e-06)
        porous   : (0 0 0)

Time = 91

smoothSolver:  Solving for Ux, Initial residual = 0.00144293, Final residual = 8.00119e-05, No Iterations 4
smoothSolver:  Solving for Uy, Initial residual = 0.000924623, Final residual = 3.79322e-05, No Iterations 4
GAMG:  Solving for p, Initial residual = 0.0556211, Final residual = 0.00379747, No Iterations 4
time step continuity errors : sum local = 4.66692e-09, global = 2.36012e-19, cumulative = 2.21207e-18
ExecutionTime = 56.21 s  ClockTime = 57 s

forces forces write:
    sum of forces:
        pressure : (-2.48805e-06 1.12315e-05 -2.18384e-25)
        viscous  : (1.96635e-05 4.1625e-07 -3.54945e-26)
        porous   : (0 0 0)
    sum of moments:
        pressure : (-1.68473e-06 -3.73207e-07 -3.15695e-06)
        viscous  : (-6.24375e-08 2.94952e-06 -1.09909e-06)
        porous   : (0 0 0)

Time = 92

smoothSolver:  Solving for Ux, Initial residual = 0.00142842, Final residual = 7.90783e-05, No Iterations 4
smoothSolver:  Solving for Uy, Initial residual = 0.000916636, Final residual = 3.76493e-05, No Iterations 4
GAMG:  Solving for p, Initial residual = 0.0538384, Final residual = 0.00361041, No Iterations 4
time step continuity errors : sum local = 4.44161e-09, global = 3.43157e-19, cumulative = 2.55523e-18
ExecutionTime = 56.69 s  ClockTime = 57 s

forces forces write:
    sum of forces:
        pressure : (-2.49457e-06 1.1264e-05 -2.18157e-25)
        viscous  : (1.94668e-05 4.14267e-07 -3.5628e-26)
        porous   : (0 0 0)
    sum of moments:
        pressure : (-1.6896e-06 -3.74186e-07 -3.15859e-06)
        viscous  : (-6.21401e-08 2.92002e-06 -1.08896e-06)
        porous   : (0 0 0)

Time = 93

smoothSolver:  Solving for Ux, Initial residual = 0.00141418, Final residual = 7.81631e-05, No Iterations 4
smoothSolver:  Solving for Uy, Initial residual = 0.000908514, Final residual = 3.73571e-05, No Iterations 4
GAMG:  Solving for p, Initial residual = 0.0520045, Final residual = 0.00329311, No Iterations 4
time step continuity errors : sum local = 4.05745e-09, global = -4.95025e-20, cumulative = 2.50573e-18
ExecutionTime = 57.32 s  ClockTime = 58 s

forces forces write:
    sum of forces:
        pressure : (-2.50075e-06 1.12949e-05 -2.17937e-25)
        viscous  : (1.92736e-05 4.12353e-07 -3.57496e-26)
        porous   : (0 0 0)
    sum of moments:
        pressure : (-1.69423e-06 -3.75112e-07 -3.16021e-06)
        viscous  : (-6.1853e-08 2.89103e-06 -1.07903e-06)
        porous   : (0 0 0)

Time = 94

smoothSolver:  Solving for Ux, Initial residual = 0.0013999, Final residual = 7.72646e-05, No Iterations 4
smoothSolver:  Solving for Uy, Initial residual = 0.000900512, Final residual = 3.70704e-05, No Iterations 4
GAMG:  Solving for p, Initial residual = 0.0502108, Final residual = 0.0030059, No Iterations 4
time step continuity errors : sum local = 3.71142e-09, global = -1.52549e-19, cumulative = 2.35318e-18
ExecutionTime = 57.81 s  ClockTime = 58 s

forces forces write:
    sum of forces:
        pressure : (-2.50682e-06 1.13229e-05 -2.17769e-25)
        viscous  : (1.90836e-05 4.10505e-07 -3.58527e-26)
        porous   : (0 0 0)
    sum of moments:
        pressure : (-1.69843e-06 -3.76023e-07 -3.16198e-06)
        viscous  : (-6.15757e-08 2.86254e-06 -1.06929e-06)
        porous   : (0 0 0)

Time = 95

smoothSolver:  Solving for Ux, Initial residual = 0.00138551, Final residual = 7.63821e-05, No Iterations 4
smoothSolver:  Solving for Uy, Initial residual = 0.000892899, Final residual = 3.68042e-05, No Iterations 4
GAMG:  Solving for p, Initial residual = 0.0486601, Final residual = 0.00289856, No Iterations 4
time step continuity errors : sum local = 3.58773e-09, global = -2.52476e-19, cumulative = 2.1007e-18
ExecutionTime = 58.3 s  ClockTime = 59 s

forces forces write:
    sum of forces:
        pressure : (-2.51327e-06 1.13492e-05 -2.17652e-25)
        viscous  : (1.88969e-05 4.08719e-07 -3.59463e-26)
        porous   : (0 0 0)
    sum of moments:
        pressure : (-1.70238e-06 -3.7699e-07 -3.16391e-06)
        viscous  : (-6.13079e-08 2.83453e-06 -1.05972e-06)
        porous   : (0 0 0)

Time = 96

smoothSolver:  Solving for Ux, Initial residual = 0.00137129, Final residual = 7.55157e-05, No Iterations 4
smoothSolver:  Solving for Uy, Initial residual = 0.000885671, Final residual = 3.65584e-05, No Iterations 4
GAMG:  Solving for p, Initial residual = 0.0473174, Final residual = 0.00300569, No Iterations 4
time step continuity errors : sum local = 3.7303e-09, global = 1.1879e-20, cumulative = 2.11258e-18
ExecutionTime = 58.94 s  ClockTime = 59 s

forces forces write:
    sum of forces:
        pressure : (-2.52024e-06 1.13759e-05 -2.17545e-25)
        viscous  : (1.87133e-05 4.06996e-07 -3.6044e-26)
        porous   : (0 0 0)
    sum of moments:
        pressure : (-1.70639e-06 -3.78036e-07 -3.16591e-06)
        viscous  : (-6.10494e-08 2.80699e-06 -1.05034e-06)
        porous   : (0 0 0)

Time = 97

[...]
    sum of forces:
        pressure : (9.10358e-08 5.45778e-06 -7.38665e-26)
        viscous  : (7.06773e-07 2.5763e-07 9.42022e-27)
        porous   : (0 0 0)
    sum of moments:
        pressure : (-8.18667e-07 1.36554e-08 -1.07983e-06)
        viscous  : (-3.86445e-08 1.06016e-07 -8.56008e-08)
        porous   : (0 0 0)

Time = 3345

smoothSolver:  Solving for Ux, Initial residual = 0.00106771, Final residual = 3.08398e-05, No Iterations 2
smoothSolver:  Solving for Uy, Initial residual = 0.00131788, Final residual = 6.2894e-05, No Iterations 2
GAMG:  Solving for p, Initial residual = 0.339681, Final residual = 0.0201346, No Iterations 3
time step continuity errors : sum local = 9.09999e-08, global = -1.31098e-19, cumulative = 3.39098e-17
ExecutionTime = 1773.51 s  ClockTime = 1785 s

forces forces write:
    sum of forces:
        pressure : (9.11387e-08 5.46621e-06 -7.35891e-26)
        viscous  : (7.06784e-07 2.57605e-07 9.33641e-27)
        porous   : (0 0 0)
    sum of moments:
        pressure : (-8.19931e-07 1.36708e-08 -1.07959e-06)
        viscous  : (-3.86407e-08 1.06018e-07 -8.55938e-08)
        porous   : (0 0 0)

Time = 3346

smoothSolver:  Solving for Ux, Initial residual = 0.00107278, Final residual = 3.1432e-05, No Iterations 2
smoothSolver:  Solving for Uy, Initial residual = 0.00132329, Final residual = 6.39173e-05, No Iterations 2
GAMG:  Solving for p, Initial residual = 0.343945, Final residual = 0.0192583, No Iterations 3
time step continuity errors : sum local = 8.89153e-08, global = -6.51556e-19, cumulative = 3.32582e-17
ExecutionTime = 1774.12 s  ClockTime = 1785 s

forces forces write:
    sum of forces:
        pressure : (9.05985e-08 5.46466e-06 -7.35945e-26)
        viscous  : (7.06795e-07 2.57577e-07 9.35919e-27)
        porous   : (0 0 0)
    sum of moments:
        pressure : (-8.197e-07 1.35898e-08 -1.07981e-06)
        viscous  : (-3.86366e-08 1.06019e-07 -8.55864e-08)
        porous   : (0 0 0)

Time = 3347

smoothSolver:  Solving for Ux, Initial residual = 0.00107994, Final residual = 3.197e-05, No Iterations 2
smoothSolver:  Solving for Uy, Initial residual = 0.00133118, Final residual = 6.5309e-05, No Iterations 2
GAMG:  Solving for p, Initial residual = 0.344477, Final residual = 0.0338087, No Iterations 2
time step continuity errors : sum local = 1.61673e-07, global = 3.08502e-19, cumulative = 3.35667e-17
ExecutionTime = 1774.68 s  ClockTime = 1786 s

forces forces write:
    sum of forces:
        pressure : (8.99806e-08 5.45898e-06 -7.37539e-26)
        viscous  : (7.06807e-07 2.57551e-07 9.41931e-27)
        porous   : (0 0 0)
    sum of moments:
        pressure : (-8.18847e-07 1.34971e-08 -1.08019e-06)
        viscous  : (-3.86326e-08 1.06021e-07 -8.55783e-08)
        porous   : (0 0 0)

Time = 3348

smoothSolver:  Solving for Ux, Initial residual = 0.00108096, Final residual = 3.22557e-05, No Iterations 2
smoothSolver:  Solving for Uy, Initial residual = 0.0013367, Final residual = 6.72298e-05, No Iterations 2
GAMG:  Solving for p, Initial residual = 0.359798, Final residual = 0.0242633, No Iterations 3
time step continuity errors : sum local = 1.20054e-07, global = -2.95032e-19, cumulative = 3.32717e-17
ExecutionTime = 1775.24 s  ClockTime = 1787 s

forces forces write:
    sum of forces:
        pressure : (8.86797e-08 5.44414e-06 -7.41377e-26)
        viscous  : (7.06821e-07 2.57528e-07 9.58898e-27)
        porous   : (0 0 0)
    sum of moments:
        pressure : (-8.1662e-07 1.3302e-08 -1.08114e-06)
        viscous  : (-3.86292e-08 1.06023e-07 -8.55696e-08)
        porous   : (0 0 0)

Time = 3349

smoothSolver:  Solving for Ux, Initial residual = 0.00109563, Final residual = 3.30996e-05, No Iterations 2
smoothSolver:  Solving for Uy, Initial residual = 0.00134945, Final residual = 6.90548e-05, No Iterations 2
GAMG:  Solving for p, Initial residual = 0.363101, Final residual = 0.0348983, No Iterations 2
time step continuity errors : sum local = 1.78793e-07, global = 2.91073e-19, cumulative = 3.35628e-17
ExecutionTime = 1775.78 s  ClockTime = 1787 s

forces forces write:
    sum of forces:
        pressure : (8.79428e-08 5.43679e-06 -7.43564e-26)
        viscous  : (7.06836e-07 2.5751e-07 9.66694e-27)
        porous   : (0 0 0)
    sum of moments:
        pressure : (-8.15519e-07 1.31914e-08 -1.08169e-06)
        viscous  : (-3.86265e-08 1.06025e-07 -8.55603e-08)
        porous   : (0 0 0)

Time = 3350

smoothSolver:  Solving for Ux, Initial residual = 0.00109787, Final residual = 3.33994e-05, No Iterations 2
smoothSolver:  Solving for Uy, Initial residual = 0.0013619, Final residual = 7.17527e-05, No Iterations 2
GAMG:  Solving for p, Initial residual = 0.369592, Final residual = 0.0369383, No Iterations 2
time step continuity errors : sum local = 1.9364e-07, global = -5.96509e-21, cumulative = 3.35568e-17
ExecutionTime = 1776.39 s  ClockTime = 1788 s

forces forces write:
    sum of forces:
        pressure : (8.71724e-08 5.43045e-06 -7.45618e-26)
        viscous  : (7.06853e-07 2.57495e-07 9.7317e-27)
        porous   : (0 0 0)
    sum of moments:
        pressure : (-8.14567e-07 1.30759e-08 -1.08235e-06)
        viscous  : (-3.86243e-08 1.06028e-07 -8.55506e-08)
        porous   : (0 0 0)

Time = 3351

smoothSolver:  Solving for Ux, Initial residual = 0.00110242, Final residual = 3.40658e-05, No Iterations 2
smoothSolver:  Solving for Uy, Initial residual = 0.00137229, Final residual = 7.42793e-05, No Iterations 2
GAMG:  Solving for p, Initial residual = 0.388664, Final residual = 0.0273333, No Iterations 3
time step continuity errors : sum local = 1.47165e-07, global = -8.45942e-19, cumulative = 3.27109e-17
ExecutionTime = 1776.92 s  ClockTime = 1788 s

forces forces write:
    sum of forces:
        pressure : (8.56916e-08 5.42289e-06 -7.4832e-26)
        viscous  : (7.0687e-07 2.57481e-07 9.80864e-27)
        porous   : (0 0 0)
    sum of moments:
        pressure : (-8.13433e-07 1.28537e-08 -1.08359e-06)
        viscous  : (-3.86222e-08 1.0603e-07 -8.55408e-08)
        porous   : (0 0 0)

Time = 3352

smoothSolver:  Solving for Ux, Initial residual = 0.00111733, Final residual = 3.47151e-05, No Iterations 2
smoothSolver:  Solving for Uy, Initial residual = 0.00139338, Final residual = 7.71537e-05, No Iterations 2
GAMG:  Solving for p, Initial residual = 0.389498, Final residual = 0.0323444, No Iterations 2
time step continuity errors : sum local = 1.74155e-07, global = -2.44693e-19, cumulative = 3.24662e-17
ExecutionTime = 1777.55 s  ClockTime = 1789 s

forces forces write:
    sum of forces:
        pressure : (8.53085e-08 5.42245e-06 -7.48698e-26)
        viscous  : (7.06888e-07 2.57466e-07 9.81488e-27)
        porous   : (0 0 0)
    sum of moments:
        pressure : (-8.13368e-07 1.27963e-08 -1.08393e-06)
        viscous  : (-3.86198e-08 1.06033e-07 -8.55311e-08)
        porous   : (0 0 0)

Time = 3353

smoothSolver:  Solving for Ux, Initial residual = 0.00111699, Final residual = 3.50204e-05, No Iterations 2
smoothSolver:  Solving for Uy, Initial residual = 0.0013996, Final residual = 7.89999e-05, No Iterations 2
GAMG:  Solving for p, Initial residual = 0.396607, Final residual = 0.0339915, No Iterations 2
time step continuity errors : sum local = 1.82756e-07, global = -1.99302e-19, cumulative = 3.22669e-17
ExecutionTime = 1778.21 s  ClockTime = 1790 s

forces forces write:
    sum of forces:
        pressure : (8.49607e-08 5.42345e-06 -7.48759e-26)
        viscous  : (7.06906e-07 2.57449e-07 9.80017e-27)
        porous   : (0 0 0)
    sum of moments:
        pressure : (-8.13518e-07 1.27441e-08 -1.08419e-06)
        viscous  : (-3.86173e-08 1.06036e-07 -8.55214e-08)
        porous   : (0 0 0)

Time = 3354

smoothSolver:  Solving for Ux, Initial residual = 0.00111571, Final residual = 3.47962e-05, No Iterations 2
smoothSolver:  Solving for Uy, Initial residual = 0.00140213, Final residual = 7.92677e-05, No Iterations 2
GAMG:  Solving for p, Initial residual = 0.409621, Final residual = 0.0391703, No Iterations 2
time step continuity errors : sum local = 2.05625e-07, global = -9.97413e-21, cumulative = 3.22569e-17
ExecutionTime = 1778.8 s  ClockTime = 1790 s

forces forces write:
    sum of forces:
        pressure : (8.44991e-08 5.42484e-06 -7.48886e-26)
        viscous  : (7.06924e-07 2.5743e-07 9.7673e-27)
        porous   : (0 0 0)
    sum of moments:
        pressure : (-8.13726e-07 1.26749e-08 -1.0845e-06)
        viscous  : (-3.86146e-08 1.06039e-07 -8.55119e-08)
        porous   : (0 0 0)

Time = 3355

smoothSolver:  Solving for Ux, Initial residual = 0.00111861, Final residual = 3.44914e-05, No Iterations 2
smoothSolver:  Solving for Uy, Initial residual = 0.00140356, Final residual = 7.8529e-05, No Iterations 2
GAMG:  Solving for p, Initial residual = 0.406314, Final residual = 0.0270828, No Iterations 3
time step continuity errors : sum local = 1.38151e-07, global = -3.2853e-20, cumulative = 3.2224e-17
ExecutionTime = 1779.33 s  ClockTime = 1791 s

forces forces write:
    sum of forces:
        pressure : (8.25881e-08 5.42056e-06 -7.51625e-26)
        viscous  : (7.0694e-07 2.5741e-07 9.73344e-27)
        porous   : (0 0 0)
    sum of moments:
        pressure : (-8.13084e-07 1.23882e-08 -1.08583e-06)
        viscous  : (-3.86116e-08 1.06041e-07 -8.55027e-08)
        porous   : (0 0 0)

Time = 3356

smoothSolver:  Solving for Ux, Initial residual = 0.00112668, Final residual = 3.436e-05, No Iterations 2
smoothSolver:  Solving for Uy, Initial residual = 0.00140842, Final residual = 7.7245e-05, No Iterations 2
GAMG:  Solving for p, Initial residual = 0.390918, Final residual = 0.0351642, No Iterations 2
time step continuity errors : sum local = 1.71311e-07, global = 2.31464e-19, cumulative = 3.24555e-17
ExecutionTime = 1779.86 s  ClockTime = 1791 s

forces forces write:
    sum of forces:
        pressure : (8.21774e-08 5.41923e-06 -7.52225e-26)
        viscous  : (7.06956e-07 2.57389e-07 9.72908e-27)
        porous   : (0 0 0)
    sum of moments:
        pressure : (-8.12885e-07 1.23266e-08 -1.08613e-06)
        viscous  : (-3.86083e-08 1.06043e-07 -8.54944e-08)
        porous   : (0 0 0)

Time = 3357

smoothSolver:  Solving for Ux, Initial residual = 0.0011238, Final residual = 3.386e-05, No Iterations 2
smoothSolver:  Solving for Uy, Initial residual = 0.0014046, Final residual = 7.56893e-05, No Iterations 2
GAMG:  Solving for p, Initial residual = 0.378894, Final residual = 0.0351817, No Iterations 2
time step continuity errors : sum local = 1.63523e-07, global = 3.90493e-19, cumulative = 3.2846e-17
ExecutionTime = 1780.37 s  ClockTime = 1792 s

forces forces write:
    sum of forces:
        pressure : (8.17992e-08 5.41542e-06 -7.5337e-26)
        viscous  : (7.06972e-07 2.57366e-07 9.75524e-27)
        porous   : (0 0 0)
    sum of moments:
        pressure : (-8.12313e-07 1.22699e-08 -1.08649e-06)
        viscous  : (-3.86049e-08 1.06046e-07 -8.54862e-08)
        porous   : (0 0 0)

Time = 3358

smoothSolver:  Solving for Ux, Initial residual = 0.00111768, Final residual = 3.3058e-05, No Iterations 2
smoothSolver:  Solving for Uy, Initial residual = 0.00139767, Final residual = 7.37422e-05, No Iterations 2
GAMG:  Solving for p, Initial residual = 0.37341, Final residual = 0.0359085, No Iterations 3
time step continuity errors : sum local = 1.60484e-07, global = -2.63568e-19, cumulative = 3.25824e-17
ExecutionTime = 1781 s  ClockTime = 1792 s

forces forces write:
    sum of forces:
        pressure : (8.00246e-08 5.39133e-06 -7.60918e-26)
        viscous  : (7.06989e-07 2.57344e-07 9.96519e-27)
        porous   : (0 0 0)
    sum of moments:
        pressure : (-8.08699e-07 1.20037e-08 -1.08855e-06)
        viscous  : (-3.86015e-08 1.06048e-07 -8.54778e-08)
        porous   : (0 0 0)

Time = 3359

smoothSolver:  Solving for Ux, Initial residual = 0.00111554, Final residual = 3.20973e-05, No Iterations 2
smoothSolver:  Solving for Uy, Initial residual = 0.00139552, Final residual = 7.20138e-05, No Iterations 2
GAMG:  Solving for p, Initial residual = 0.360854, Final residual = 0.0344573, No Iterations 3
time step continuity errors : sum local = 1.49744e-07, global = -2.96635e-19, cumulative = 3.22858e-17
ExecutionTime = 1781.56 s  ClockTime = 1793 s

forces forces write:
    sum of forces:
        pressure : (7.91584e-08 5.36979e-06 -7.67222e-26)
        viscous  : (7.07009e-07 2.5732e-07 1.01801e-26)
        porous   : (0 0 0)
    sum of moments:
        pressure : (-8.05469e-07 1.18738e-08 -1.08992e-06)
        viscous  : (-3.8598e-08 1.06051e-07 -8.54696e-08)
        porous   : (0 0 0)

Time = 3360

smoothSolver:  Solving for Ux, Initial residual = 0.00111298, Final residual = 3.10754e-05, No Iterations 2
smoothSolver:  Solving for Uy, Initial residual = 0.00139969, Final residual = 7.07443e-05, No Iterations 2
GAMG:  Solving for p, Initial residual = 0.347227, Final residual = 0.027256, No Iterations 3
time step continuity errors : sum local = 1.16765e-07, global = -2.55027e-19, cumulative = 3.20308e-17
ExecutionTime = 1782.21 s  ClockTime = 1794 s

forces forces write:
    sum of forces:
        pressure : (7.93937e-08 5.35855e-06 -7.70157e-26)
        viscous  : (7.07031e-07 2.57298e-07 1.03096e-26)
        porous   : (0 0 0)
    sum of moments:
        pressure : (-8.03783e-07 1.19091e-08 -1.09024e-06)
        viscous  : (-3.85947e-08 1.06055e-07 -8.5461e-08)
        porous   : (0 0 0)

Time = 3361

smoothSolver:  Solving for Ux, Initial residual = 0.00110486, Final residual = 3.00787e-05, No Iterations 2
smoothSolver:  Solving for Uy, Initial residual = 0.00140237, Final residual = 6.92768e-05, No Iterations 2
GAMG:  Solving for p, Initial residual = 0.340176, Final residual = 0.0336637, No Iterations 2
time step continuity errors : sum local = 1.42429e-07, global = 5.73587e-20, cumulative = 3.20881e-17
ExecutionTime = 1782.91 s  ClockTime = 1794 s

forces forces write:
    sum of forces:
        pressure : (7.99462e-08 5.35927e-06 -7.6967e-26)
        viscous  : (7.07055e-07 2.5728e-07 1.03115e-26)
        porous   : (0 0 0)
    sum of moments:
        pressure : (-8.03891e-07 1.19919e-08 -1.08993e-06)
        viscous  : (-3.8592e-08 1.06058e-07 -8.54516e-08)
        porous   : (0 0 0)

Time = 3362

smoothSolver:  Solving for Ux, Initial residual = 0.00109835, Final residual = 2.91946e-05, No Iterations 2
smoothSolver:  Solving for Uy, Initial residual = 0.00139765, Final residual = 6.77716e-05, No Iterations 2
GAMG:  Solving for p, Initial residual = 0.339918, Final residual = 0.0245475, No Iterations 3
time step continuity errors : sum local = 1.04335e-07, global = -3.79274e-19, cumulative = 3.17089e-17
ExecutionTime = 1783.69 s  ClockTime = 1795 s

forces forces write:
    sum of forces:
        pressure : (8.12603e-08 5.36899e-06 -7.67099e-26)
        viscous  : (7.07078e-07 2.57266e-07 1.02011e-26)
        porous   : (0 0 0)
    sum of moments:
        pressure : (-8.05348e-07 1.2189e-08 -1.08911e-06)
        viscous  : (-3.85899e-08 1.06062e-07 -8.54417e-08)
        porous   : (0 0 0)

Time = 3363

smoothSolver:  Solving for Ux, Initial residual = 0.0010962, Final residual = 2.83736e-05, No Iterations 2
smoothSolver:  Solving for Uy, Initial residual = 0.00139952, Final residual = 6.5437e-05, No Iterations 2
GAMG:  Solving for p, Initial residual = 0.33517, Final residual = 0.0219013, No Iterations 3
time step continuity errors : sum local = 9.30687e-08, global = -1.43163e-19, cumulative = 3.15657e-17
ExecutionTime = 1784.4 s  ClockTime = 1796 s

forces forces write:
    sum of forces:
        pressure : (8.19233e-08 5.38213e-06 -7.64117e-26)
        viscous  : (7.07101e-07 2.57253e-07 1.0028e-26)
        porous   : (0 0 0)
    sum of moments:
        pressure : (-8.07319e-07 1.22885e-08 -1.08873e-06)
        viscous  : (-3.8588e-08 1.06065e-07 -8.54317e-08)
        porous   : (0 0 0)

Time = 3364

smoothSolver:  Solving for Ux, Initial residual = 0.00109471, Final residual = 2.77608e-05, No Iterations 2
smoothSolver:  Solving for Uy, Initial residual = 0.00140058, Final residual = 6.36536e-05, No Iterations 2
GAMG:  Solving for p, Initial residual = 0.324067, Final residual = 0.0198637, No Iterations 3
time step continuity errors : sum local = 8.42132e-08, global = 4.63438e-19, cumulative = 3.20291e-17
ExecutionTime = 1784.97 s  ClockTime = 1796 s

forces forces write:
    sum of forces:
        pressure : (8.15649e-08 5.38974e-06 -7.62906e-26)
        viscous  : (7.07122e-07 2.57239e-07 9.90132e-27)
        porous   : (0 0 0)
    sum of moments:
        pressure : (-8.08461e-07 1.22347e-08 -1.08916e-06)
        viscous  : (-3.85858e-08 1.06068e-07 -8.54221e-08)
        porous   : (0 0 0)

Time = 3365

smoothSolver:  Solving for Ux, Initial residual = 0.00109226, Final residual = 2.73967e-05, No Iterations 2
smoothSolver:  Solving for Uy, Initial residual = 0.00139785, Final residual = 6.21352e-05, No Iterations 2
GAMG:  Solving for p, Initial residual = 0.31562, Final residual = 0.0187347, No Iterations 3
time step continuity errors : sum local = 7.87995e-08, global = 1.37026e-19, cumulative = 3.21662e-17
ExecutionTime = 1785.52 s  ClockTime = 1797 s

forces forces write:
    sum of forces:
        pressure : (8.05707e-08 5.38826e-06 -7.64036e-26)
        viscous  : (7.07139e-07 2.5722e-07 9.8757e-27)
        porous   : (0 0 0)
    sum of moments:
        pressure : (-8.08239e-07 1.20856e-08 -1.09007e-06)
        viscous  : (-3.85829e-08 1.06071e-07 -8.54132e-08)
        porous   : (0 0 0)

Time = 3366

smoothSolver:  Solving for Ux, Initial residual = 0.00108484, Final residual = 2.70891e-05, No Iterations 2
smoothSolver:  Solving for Uy, Initial residual = 0.00138964, Final residual = 6.03434e-05, No Iterations 2
GAMG:  Solving for p, Initial residual = 0.310271, Final residual = 0.020634, No Iterations 3
time step continuity errors : sum local = 8.6228e-08, global = 4.0825e-19, cumulative = 3.25744e-17
ExecutionTime = 1786.1 s  ClockTime = 1797 s

forces forces write:
    sum of forces:
        pressure : (7.92702e-08 5.37731e-06 -7.67504e-26)
        viscous  : (7.07155e-07 2.57196e-07 9.95513e-27)
        porous   : (0 0 0)
    sum of moments:
        pressure : (-8.06596e-07 1.18905e-08 -1.09118e-06)
        viscous  : (-3.85794e-08 1.06073e-07 -8.54047e-08)
        porous   : (0 0 0)

Time = 3367

smoothSolver:  Solving for Ux, Initial residual = 0.00108107, Final residual = 2.68703e-05, No Iterations 2
smoothSolver:  Solving for Uy, Initial residual = 0.00137809, Final residual = 5.81398e-05, No Iterations 2
GAMG:  Solving for p, Initial residual = 0.311192, Final residual = 0.0237351, No Iterations 3
time step continuity errors : sum local = 9.87005e-08, global = 8.99149e-19, cumulative = 3.34736e-17
ExecutionTime = 1786.66 s  ClockTime = 1798 s

forces forces write:
    sum of forces:
        pressure : (7.79803e-08 5.35842e-06 -7.72917e-26)
        viscous  : (7.07171e-07 2.5717e-07 1.01192e-26)
        porous   : (0 0 0)
    sum of moments:
        pressure : (-8.03764e-07 1.1697e-08 -1.09234e-06)
        viscous  : (-3.85755e-08 1.06076e-07 -8.53963e-08)
        porous   : (0 0 0)

Time = 3368

smoothSolver:  Solving for Ux, Initial residual = 0.0010809, Final residual = 2.69639e-05, No Iterations 2
smoothSolver:  Solving for Uy, Initial residual = 0.00136695, Final residual = 5.61124e-05, No Iterations 2
GAMG:  Solving for p, Initial residual = 0.317005, Final residual = 0.0255611, No Iterations 3
time step continuity errors : sum local = 1.06107e-07, global = -2.1601e-19, cumulative = 3.32575e-17
ExecutionTime = 1787.22 s  ClockTime = 1799 s

forces forces write:
    sum of forces:
        pressure : (7.67619e-08 5.33625e-06 -7.79337e-26)
        viscous  : (7.07187e-07 2.57144e-07 1.03121e-26)
        porous   : (0 0 0)
    sum of moments:
        pressure : (-8.00438e-07 1.15143e-08 -1.09352e-06)
        viscous  : (-3.85717e-08 1.06078e-07 -8.5388e-08)
        porous   : (0 0 0)

Time = 3369

